
Version,
  9.2;                                    !- Version Identifier

Timestep,
  6;                                      !- Number of Timesteps per Hour

LifeCycleCost:Parameters,
  Life Cycle Cost Parameters,             !- Name
  EndOfYear,                              !- Discounting Convention
  ConstantDollar,                         !- Inflation Approach
  0.03,                                   !- Real Discount Rate
  ,                                       !- Nominal Discount Rate
  ,                                       !- Inflation
  ,                                       !- Base Date Month
  2011,                                   !- Base Date Year
  ,                                       !- Service Date Month
  2011,                                   !- Service Date Year
  25,                                     !- Length of Study Period in Years
  ,                                       !- Tax rate
  None;                                   !- Depreciation Method

LifeCycleCost:UsePriceEscalation,
  U.S. Avg  Commercial-Electricity,       !- LCC Price Escalation Name
  Electricity,                            !- Resource
  2011,                                   !- Escalation Start Year
  January,                                !- Escalation Start Month
  0.9838,                                 !- Year Escalation 1
  0.9730,                                 !- Year Escalation 2
  0.9632,                                 !- Year Escalation 3
  0.9611,                                 !- Year Escalation 4
  0.9571,                                 !- Year Escalation 5
  0.9553,                                 !- Year Escalation 6
  0.9539,                                 !- Year Escalation 7
  0.9521,                                 !- Year Escalation 8
  0.9546,                                 !- Year Escalation 9
  0.9550,                                 !- Year Escalation 10
  0.9553,                                 !- Year Escalation 11
  0.9564,                                 !- Year Escalation 12
  0.9575,                                 !- Year Escalation 13
  0.9596,                                 !- Year Escalation 14
  0.9618,                                 !- Year Escalation 15
  0.9614,                                 !- Year Escalation 16
  0.9618,                                 !- Year Escalation 17
  0.9618,                                 !- Year Escalation 18
  0.9593,                                 !- Year Escalation 19
  0.9589,                                 !- Year Escalation 20
  0.9607,                                 !- Year Escalation 21
  0.9625,                                 !- Year Escalation 22
  0.9650,                                 !- Year Escalation 23
  0.9708,                                 !- Year Escalation 24
  0.9751,                                 !- Year Escalation 25
  0.9762,                                 !- Year Escalation 26
  0.9766,                                 !- Year Escalation 27
  0.9766,                                 !- Year Escalation 28
  0.9769,                                 !- Year Escalation 29
  0.9773;                                 !- Year Escalation 30

LifeCycleCost:UsePriceEscalation,
  U.S. Avg  Commercial-Distillate Oil,    !- LCC Price Escalation Name
  FuelOil#1,                              !- Resource
  2011,                                   !- Escalation Start Year
  January,                                !- Escalation Start Month
  0.9714,                                 !- Year Escalation 1
  0.9730,                                 !- Year Escalation 2
  0.9942,                                 !- Year Escalation 3
  1.0164,                                 !- Year Escalation 4
  1.0541,                                 !- Year Escalation 5
  1.0928,                                 !- Year Escalation 6
  1.1267,                                 !- Year Escalation 7
  1.1580,                                 !- Year Escalation 8
  1.1792,                                 !- Year Escalation 9
  1.1967,                                 !- Year Escalation 10
  1.2200,                                 !- Year Escalation 11
  1.2333,                                 !- Year Escalation 12
  1.2566,                                 !- Year Escalation 13
  1.2709,                                 !- Year Escalation 14
  1.2826,                                 !- Year Escalation 15
  1.2985,                                 !- Year Escalation 16
  1.3102,                                 !- Year Escalation 17
  1.3250,                                 !- Year Escalation 18
  1.3261,                                 !- Year Escalation 19
  1.3282,                                 !- Year Escalation 20
  1.3324,                                 !- Year Escalation 21
  1.3356,                                 !- Year Escalation 22
  1.3431,                                 !- Year Escalation 23
  1.3510,                                 !- Year Escalation 24
  1.3568,                                 !- Year Escalation 25
  1.3606,                                 !- Year Escalation 26
  1.3637,                                 !- Year Escalation 27
  1.3674,                                 !- Year Escalation 28
  1.3706,                                 !- Year Escalation 29
  1.3743;                                 !- Year Escalation 30

LifeCycleCost:UsePriceEscalation,
  U.S. Avg  Commercial-Residual Oil,      !- LCC Price Escalation Name
  FuelOil#2,                              !- Resource
  2011,                                   !- Escalation Start Year
  January,                                !- Escalation Start Month
  0.8469,                                 !- Year Escalation 1
  0.8257,                                 !- Year Escalation 2
  0.8681,                                 !- Year Escalation 3
  0.8988,                                 !- Year Escalation 4
  0.9289,                                 !- Year Escalation 5
  0.9604,                                 !- Year Escalation 6
  0.9897,                                 !- Year Escalation 7
  1.0075,                                 !- Year Escalation 8
  1.0314,                                 !- Year Escalation 9
  1.0554,                                 !- Year Escalation 10
  1.0861,                                 !- Year Escalation 11
  1.1278,                                 !- Year Escalation 12
  1.1497,                                 !- Year Escalation 13
  1.1620,                                 !- Year Escalation 14
  1.1743,                                 !- Year Escalation 15
  1.1852,                                 !- Year Escalation 16
  1.1948,                                 !- Year Escalation 17
  1.2037,                                 !- Year Escalation 18
  1.2071,                                 !- Year Escalation 19
  1.2119,                                 !- Year Escalation 20
  1.2139,                                 !- Year Escalation 21
  1.2194,                                 !- Year Escalation 22
  1.2276,                                 !- Year Escalation 23
  1.2365,                                 !- Year Escalation 24
  1.2420,                                 !- Year Escalation 25
  1.2461,                                 !- Year Escalation 26
  1.2509,                                 !- Year Escalation 27
  1.2550,                                 !- Year Escalation 28
  1.2591,                                 !- Year Escalation 29
  1.2638;                                 !- Year Escalation 30

LifeCycleCost:UsePriceEscalation,
  U.S. Avg  Commercial-Natural gas,       !- LCC Price Escalation Name
  NaturalGas,                             !- Resource
  2011,                                   !- Escalation Start Year
  January,                                !- Escalation Start Month
  0.9823,                                 !- Year Escalation 1
  0.9557,                                 !- Year Escalation 2
  0.9279,                                 !- Year Escalation 3
  0.9257,                                 !- Year Escalation 4
  0.9346,                                 !- Year Escalation 5
  0.9412,                                 !- Year Escalation 6
  0.9512,                                 !- Year Escalation 7
  0.9645,                                 !- Year Escalation 8
  0.9856,                                 !- Year Escalation 9
  1.0067,                                 !- Year Escalation 10
  1.0222,                                 !- Year Escalation 11
  1.0410,                                 !- Year Escalation 12
  1.0610,                                 !- Year Escalation 13
  1.0787,                                 !- Year Escalation 14
  1.0942,                                 !- Year Escalation 15
  1.1098,                                 !- Year Escalation 16
  1.1220,                                 !- Year Escalation 17
  1.1308,                                 !- Year Escalation 18
  1.1386,                                 !- Year Escalation 19
  1.1486,                                 !- Year Escalation 20
  1.1619,                                 !- Year Escalation 21
  1.1763,                                 !- Year Escalation 22
  1.1918,                                 !- Year Escalation 23
  1.2118,                                 !- Year Escalation 24
  1.2284,                                 !- Year Escalation 25
  1.2439,                                 !- Year Escalation 26
  1.2605,                                 !- Year Escalation 27
  1.2772,                                 !- Year Escalation 28
  1.2938,                                 !- Year Escalation 29
  1.3115;                                 !- Year Escalation 30

LifeCycleCost:UsePriceEscalation,
  U.S. Avg  Commercial-Coal,              !- LCC Price Escalation Name
  Coal,                                   !- Resource
  2011,                                   !- Escalation Start Year
  January,                                !- Escalation Start Month
  0.9970,                                 !- Year Escalation 1
  1.0089,                                 !- Year Escalation 2
  1.0089,                                 !- Year Escalation 3
  0.9941,                                 !- Year Escalation 4
  0.9941,                                 !- Year Escalation 5
  1.0000,                                 !- Year Escalation 6
  1.0030,                                 !- Year Escalation 7
  1.0059,                                 !- Year Escalation 8
  1.0089,                                 !- Year Escalation 9
  1.0119,                                 !- Year Escalation 10
  1.0148,                                 !- Year Escalation 11
  1.0178,                                 !- Year Escalation 12
  1.0208,                                 !- Year Escalation 13
  1.0267,                                 !- Year Escalation 14
  1.0297,                                 !- Year Escalation 15
  1.0356,                                 !- Year Escalation 16
  1.0415,                                 !- Year Escalation 17
  1.0534,                                 !- Year Escalation 18
  1.0564,                                 !- Year Escalation 19
  1.0593,                                 !- Year Escalation 20
  1.0653,                                 !- Year Escalation 21
  1.0712,                                 !- Year Escalation 22
  1.0742,                                 !- Year Escalation 23
  1.0801,                                 !- Year Escalation 24
  1.0831,                                 !- Year Escalation 25
  1.0831,                                 !- Year Escalation 26
  1.0861,                                 !- Year Escalation 27
  1.0890,                                 !- Year Escalation 28
  1.0920,                                 !- Year Escalation 29
  1.0950;                                 !- Year Escalation 30

Building,
  bldg-1,                                 !- Name
  ,                                       !- North Axis {deg}
  ,                                       !- Terrain
  ,                                       !- Loads Convergence Tolerance Value
  ,                                       !- Temperature Convergence Tolerance Value {deltaC}
  ,                                       !- Solar Distribution
  ,                                       !- Maximum Number of Warmup Days
  ;                                       !- Minimum Number of Warmup Days

Shading:Building:Detailed,
  X-S-100,                                !- Name
  ,                                       !- Transmittance Schedule Name
  ,                                       !- Number of Vertices
  -16.04585, 2.414532, 15.97138,          !- X,Y,Z Vertex 1 {m}
  -15.29248, 0.6770979, 17.57027,         !- X,Y,Z Vertex 2 {m}
  -15.0326, 2.000678, 17.57027;           !- X,Y,Z Vertex 3 {m}

Shading:Building:Detailed,
  X-S-101,                                !- Name
  ,                                       !- Transmittance Schedule Name
  ,                                       !- Number of Vertices
  -15.0326, 2.000678, 17.57027,           !- X,Y,Z Vertex 1 {m}
  -13.68262, 0.6770979, 18.62879,         !- X,Y,Z Vertex 2 {m}
  -13.54226, 1.391961, 18.62879;          !- X,Y,Z Vertex 3 {m}

Shading:Building:Detailed,
  X-S-102,                                !- Name
  ,                                       !- Transmittance Schedule Name
  ,                                       !- Number of Vertices
  -13.68262, 0.6770979, 18.62879,         !- X,Y,Z Vertex 1 {m}
  -11.79203, 0.6770979, 19,               !- X,Y,Z Vertex 2 {m}
  -13.54226, 1.391961, 18.62879;          !- X,Y,Z Vertex 3 {m}

Shading:Building:Detailed,
  X-S-103,                                !- Name
  ,                                       !- Transmittance Schedule Name
  ,                                       !- Number of Vertices
  -13.76341, 0.6770979, 9.405039,         !- X,Y,Z Vertex 1 {m}
  -13.60371, -0.1001682, 9.405039,        !- X,Y,Z Vertex 2 {m}
  -11.79203, 0.6770979, 9;                !- X,Y,Z Vertex 3 {m}

Shading:Building:Detailed,
  X-S-104,                                !- Name
  ,                                       !- Transmittance Schedule Name
  ,                                       !- Number of Vertices
  -15.36231, 0.6770979, 10.49955,         !- X,Y,Z Vertex 1 {m}
  -15.07309, -0.7305737, 10.49955,        !- X,Y,Z Vertex 2 {m}
  -13.76341, 0.6770979, 9.405039;         !- X,Y,Z Vertex 3 {m}

Shading:Building:Detailed,
  X-S-105,                                !- Name
  ,                                       !- Transmittance Schedule Name
  ,                                       !- Number of Vertices
  -16.42082, 0.6770979, 12.10941,         !- X,Y,Z Vertex 1 {m}
  -16.04585, -1.14792, 12.10941,          !- X,Y,Z Vertex 2 {m}
  -15.36231, 0.6770979, 10.49955;         !- X,Y,Z Vertex 3 {m}

Shading:Building:Detailed,
  X-S-106,                                !- Name
  ,                                       !- Transmittance Schedule Name
  ,                                       !- Number of Vertices
  -16.79203, 0.6770979, 14,               !- X,Y,Z Vertex 1 {m}
  -16.38699, -1.29428, 14,                !- X,Y,Z Vertex 2 {m}
  -16.42082, 0.6770979, 12.10941;         !- X,Y,Z Vertex 3 {m}

Shading:Building:Detailed,
  X-S-107,                                !- Name
  ,                                       !- Transmittance Schedule Name
  ,                                       !- Number of Vertices
  -16.38699, -1.29428, 14,                !- X,Y,Z Vertex 1 {m}
  -16.01477, -1.134583, 15.97138,         !- X,Y,Z Vertex 2 {m}
  -16.38699, 0.6770979, 15.97138;         !- X,Y,Z Vertex 3 {m}

Shading:Building:Detailed,
  X-S-108,                                !- Name
  ,                                       !- Transmittance Schedule Name
  ,                                       !- Number of Vertices
  -16.38699, 0.6770979, 15.97138,         !- X,Y,Z Vertex 1 {m}
  -15.00892, -0.7030438, 17.57027,        !- X,Y,Z Vertex 2 {m}
  -15.29248, 0.6770979, 17.57027;         !- X,Y,Z Vertex 3 {m}

Shading:Building:Detailed,
  X-S-109,                                !- Name
  ,                                       !- Transmittance Schedule Name
  ,                                       !- Number of Vertices
  -15.00892, -0.7030438, 17.57027,        !- X,Y,Z Vertex 1 {m}
  -13.52947, -0.0683141, 18.62879,        !- X,Y,Z Vertex 2 {m}
  -13.68262, 0.6770979, 18.62879;         !- X,Y,Z Vertex 3 {m}

Shading:Building:Detailed,
  X-S-110,                                !- Name
  ,                                       !- Transmittance Schedule Name
  ,                                       !- Number of Vertices
  -13.68262, 0.6770979, 18.62879,         !- X,Y,Z Vertex 1 {m}
  -13.52947, -0.0683141, 18.62879,        !- X,Y,Z Vertex 2 {m}
  -11.79203, 0.6770979, 19;               !- X,Y,Z Vertex 3 {m}

Shading:Building:Detailed,
  X-S-111,                                !- Name
  ,                                       !- Transmittance Schedule Name
  ,                                       !- Number of Vertices
  -13.60371, -0.1001682, 9.405039,        !- X,Y,Z Vertex 1 {m}
  -13.17218, -0.7305737, 9.405039,        !- X,Y,Z Vertex 2 {m}
  -11.79203, 0.6770979, 9;                !- X,Y,Z Vertex 3 {m}

Shading:Building:Detailed,
  X-S-112,                                !- Name
  ,                                       !- Transmittance Schedule Name
  ,                                       !- Number of Vertices
  -15.07309, -0.7305737, 10.49955,        !- X,Y,Z Vertex 1 {m}
  -14.29155, -1.872273, 10.49955,         !- X,Y,Z Vertex 2 {m}
  -13.17218, -0.7305737, 9.405039;        !- X,Y,Z Vertex 3 {m}

Shading:Building:Detailed,
  X-S-113,                                !- Name
  ,                                       !- Transmittance Schedule Name
  ,                                       !- Number of Vertices
  -16.04585, -1.14792, 12.10941,          !- X,Y,Z Vertex 1 {m}
  -15.0326, -2.62811, 12.10941,           !- X,Y,Z Vertex 2 {m}
  -14.29155, -1.872273, 10.49955;         !- X,Y,Z Vertex 3 {m}

Shading:Building:Detailed,
  X-S-114,                                !- Name
  ,                                       !- Transmittance Schedule Name
  ,                                       !- Number of Vertices
  -16.38699, -1.29428, 14,                !- X,Y,Z Vertex 1 {m}
  -15.29248, -2.893175, 14,               !- X,Y,Z Vertex 2 {m}
  -16.04585, -1.14792, 12.10941;          !- X,Y,Z Vertex 3 {m}

Shading:Building:Detailed,
  X-S-115,                                !- Name
  ,                                       !- Transmittance Schedule Name
  ,                                       !- Number of Vertices
  -16.38699, -1.29428, 14,                !- X,Y,Z Vertex 1 {m}
  -15.00892, -2.603956, 15.97138,         !- X,Y,Z Vertex 2 {m}
  -16.01477, -1.134583, 15.97138;         !- X,Y,Z Vertex 3 {m}

Shading:Building:Detailed,
  X-S-116,                                !- Name
  ,                                       !- Transmittance Schedule Name
  ,                                       !- Number of Vertices
  -16.01477, -1.134583, 15.97138,         !- X,Y,Z Vertex 1 {m}
  -14.24266, -1.822415, 17.57027,         !- X,Y,Z Vertex 2 {m}
  -15.00892, -0.7030438, 17.57027;        !- X,Y,Z Vertex 3 {m}

Shading:Building:Detailed,
  X-S-117,                                !- Name
  ,                                       !- Transmittance Schedule Name
  ,                                       !- Number of Vertices
  -14.24266, -1.822415, 17.57027,         !- X,Y,Z Vertex 1 {m}
  -13.11561, -0.6728841, 18.62879,        !- X,Y,Z Vertex 2 {m}
  -13.52947, -0.0683141, 18.62879;        !- X,Y,Z Vertex 3 {m}

Shading:Building:Detailed,
  X-S-118,                                !- Name
  ,                                       !- Transmittance Schedule Name
  ,                                       !- Number of Vertices
  -13.52947, -0.0683141, 18.62879,        !- X,Y,Z Vertex 1 {m}
  -13.11561, -0.6728841, 18.62879,        !- X,Y,Z Vertex 2 {m}
  -11.79203, 0.6770979, 19;               !- X,Y,Z Vertex 3 {m}

Shading:Building:Detailed,
  X-S-119,                                !- Name
  ,                                       !- Transmittance Schedule Name
  ,                                       !- Number of Vertices
  -13.17218, -0.7305737, 9.405039,        !- X,Y,Z Vertex 1 {m}
  -12.53745, -1.14792, 9.405039,          !- X,Y,Z Vertex 2 {m}
  -11.79203, 0.6770979, 9;                !- X,Y,Z Vertex 3 {m}

Shading:Building:Detailed,
  X-S-120,                                !- Name
  ,                                       !- Transmittance Schedule Name
  ,                                       !- Number of Vertices
  -14.29155, -1.872273, 10.49955,         !- X,Y,Z Vertex 1 {m}
  -13.14202, -2.62811, 10.49955,          !- X,Y,Z Vertex 2 {m}
  -13.17218, -0.7305737, 9.405039;        !- X,Y,Z Vertex 3 {m}

Shading:Building:Detailed,
  X-S-121,                                !- Name
  ,                                       !- Transmittance Schedule Name
  ,                                       !- Number of Vertices
  -15.0326, -2.62811, 12.10941,           !- X,Y,Z Vertex 1 {m}
  -13.54226, -3.608039, 12.10941,         !- X,Y,Z Vertex 2 {m}
  -13.14202, -2.62811, 10.49955;          !- X,Y,Z Vertex 3 {m}

Shading:Building:Detailed,
  X-S-122,                                !- Name
  ,                                       !- Transmittance Schedule Name
  ,                                       !- Number of Vertices
  -15.29248, -2.893175, 14,               !- X,Y,Z Vertex 1 {m}
  -13.68262, -3.95169, 14,                !- X,Y,Z Vertex 2 {m}
  -15.0326, -2.62811, 12.10941;           !- X,Y,Z Vertex 3 {m}

Shading:Building:Detailed,
  X-S-123,                                !- Name
  ,                                       !- Transmittance Schedule Name
  ,                                       !- Number of Vertices
  -15.00892, -2.603956, 15.97138,         !- X,Y,Z Vertex 1 {m}
  -13.68262, -3.95169, 14,                !- X,Y,Z Vertex 2 {m}
  -13.52947, -3.576723, 15.97138;         !- X,Y,Z Vertex 3 {m}

Shading:Building:Detailed,
  X-S-124,                                !- Name
  ,                                       !- Transmittance Schedule Name
  ,                                       !- Number of Vertices
  -14.24266, -1.822415, 17.57027,         !- X,Y,Z Vertex 1 {m}
  -13.52947, -3.576723, 15.97138,         !- X,Y,Z Vertex 2 {m}
  -13.11561, -2.56347, 17.57027;          !- X,Y,Z Vertex 3 {m}

Shading:Building:Detailed,
  X-S-125,                                !- Name
  ,                                       !- Transmittance Schedule Name
  ,                                       !- Number of Vertices
  -13.11561, -2.56347, 17.57027,          !- X,Y,Z Vertex 1 {m}
  -12.5069, -1.073127, 18.62879,          !- X,Y,Z Vertex 2 {m}
  -13.11561, -0.6728841, 18.62879;        !- X,Y,Z Vertex 3 {m}

Shading:Building:Detailed,
  X-S-126,                                !- Name
  ,                                       !- Transmittance Schedule Name
  ,                                       !- Number of Vertices
  -13.11561, -0.6728841, 18.62879,        !- X,Y,Z Vertex 1 {m}
  -12.5069, -1.073127, 18.62879,          !- X,Y,Z Vertex 2 {m}
  -11.79203, 0.6770979, 19;               !- X,Y,Z Vertex 3 {m}

Shading:Building:Detailed,
  X-S-127,                                !- Name
  ,                                       !- Transmittance Schedule Name
  ,                                       !- Number of Vertices
  -12.53745, -1.14792, 9.405039,          !- X,Y,Z Vertex 1 {m}
  -11.79203, -1.29428, 9.405039,          !- X,Y,Z Vertex 2 {m}
  -11.79203, 0.6770979, 9;                !- X,Y,Z Vertex 3 {m}

Shading:Building:Detailed,
  X-S-128,                                !- Name
  ,                                       !- Transmittance Schedule Name
  ,                                       !- Number of Vertices
  -13.14202, -2.62811, 10.49955,          !- X,Y,Z Vertex 1 {m}
  -11.79203, -2.893175, 10.49955,         !- X,Y,Z Vertex 2 {m}
  -12.53745, -1.14792, 9.405039;          !- X,Y,Z Vertex 3 {m}

Shading:Building:Detailed,
  X-S-129,                                !- Name
  ,                                       !- Transmittance Schedule Name
  ,                                       !- Number of Vertices
  -13.54226, -3.608039, 12.10941,         !- X,Y,Z Vertex 1 {m}
  -11.79203, -3.95169, 12.10941,          !- X,Y,Z Vertex 2 {m}
  -13.14202, -2.62811, 10.49955;          !- X,Y,Z Vertex 3 {m}

Shading:Building:Detailed,
  X-S-130,                                !- Name
  ,                                       !- Transmittance Schedule Name
  ,                                       !- Number of Vertices
  -13.68262, -3.95169, 14,                !- X,Y,Z Vertex 1 {m}
  -11.79203, -4.322902, 14,               !- X,Y,Z Vertex 2 {m}
  -13.54226, -3.608039, 12.10941;         !- X,Y,Z Vertex 3 {m}

Shading:Building:Detailed,
  X-S-131,                                !- Name
  ,                                       !- Transmittance Schedule Name
  ,                                       !- Number of Vertices
  -13.52947, -3.576723, 15.97138,         !- X,Y,Z Vertex 1 {m}
  -11.79203, -4.322902, 14,               !- X,Y,Z Vertex 2 {m}
  -11.79203, -3.917863, 15.97138;         !- X,Y,Z Vertex 3 {m}

Shading:Building:Detailed,
  X-S-132,                                !- Name
  ,                                       !- Transmittance Schedule Name
  ,                                       !- Number of Vertices
  -13.11561, -2.56347, 17.57027,          !- X,Y,Z Vertex 1 {m}
  -11.79203, -3.917863, 15.97138,         !- X,Y,Z Vertex 2 {m}
  -11.79203, -2.823352, 17.57027;         !- X,Y,Z Vertex 3 {m}

Shading:Building:Detailed,
  X-S-133,                                !- Name
  ,                                       !- Transmittance Schedule Name
  ,                                       !- Number of Vertices
  -12.5069, -1.073127, 18.62879,          !- X,Y,Z Vertex 1 {m}
  -11.79203, -2.823352, 17.57027,         !- X,Y,Z Vertex 2 {m}
  -11.79203, -1.213488, 18.62879;         !- X,Y,Z Vertex 3 {m}

Shading:Building:Detailed,
  X-S-134,                                !- Name
  ,                                       !- Transmittance Schedule Name
  ,                                       !- Number of Vertices
  -12.5069, -1.073127, 18.62879,          !- X,Y,Z Vertex 1 {m}
  -11.79203, -1.213488, 18.62879,         !- X,Y,Z Vertex 2 {m}
  -11.79203, 0.6770979, 19;               !- X,Y,Z Vertex 3 {m}

Shading:Building:Detailed,
  X-S-135,                                !- Name
  ,                                       !- Transmittance Schedule Name
  ,                                       !- Number of Vertices
  -11.79203, -1.29428, 9.405039,          !- X,Y,Z Vertex 1 {m}
  -11.01477, -1.134583, 9.405039,         !- X,Y,Z Vertex 2 {m}
  -11.79203, 0.6770979, 9;                !- X,Y,Z Vertex 3 {m}

Shading:Building:Detailed,
  X-S-136,                                !- Name
  ,                                       !- Transmittance Schedule Name
  ,                                       !- Number of Vertices
  -11.79203, -2.893175, 10.49955,         !- X,Y,Z Vertex 1 {m}
  -10.38436, -2.603956, 10.49955,         !- X,Y,Z Vertex 2 {m}
  -11.79203, -1.29428, 9.405039;          !- X,Y,Z Vertex 3 {m}

Shading:Building:Detailed,
  X-S-137,                                !- Name
  ,                                       !- Transmittance Schedule Name
  ,                                       !- Number of Vertices
  -11.79203, -3.95169, 12.10941,          !- X,Y,Z Vertex 1 {m}
  -9.967014, -3.576723, 12.10941,         !- X,Y,Z Vertex 2 {m}
  -10.38436, -2.603956, 10.49955;         !- X,Y,Z Vertex 3 {m}

Shading:Building:Detailed,
  X-S-138,                                !- Name
  ,                                       !- Transmittance Schedule Name
  ,                                       !- Number of Vertices
  -11.79203, -4.322902, 14,               !- X,Y,Z Vertex 1 {m}
  -9.820655, -3.917863, 14,               !- X,Y,Z Vertex 2 {m}
  -11.79203, -3.95169, 12.10941;          !- X,Y,Z Vertex 3 {m}

Shading:Building:Detailed,
  X-S-139,                                !- Name
  ,                                       !- Transmittance Schedule Name
  ,                                       !- Number of Vertices
  -11.79203, -4.322902, 14,               !- X,Y,Z Vertex 1 {m}
  -9.980352, -3.545636, 15.97138,         !- X,Y,Z Vertex 2 {m}
  -11.79203, -3.917863, 15.97138;         !- X,Y,Z Vertex 3 {m}

Shading:Building:Detailed,
  X-S-140,                                !- Name
  ,                                       !- Transmittance Schedule Name
  ,                                       !- Number of Vertices
  -11.79203, -2.823352, 17.57027,         !- X,Y,Z Vertex 1 {m}
  -9.980352, -3.545636, 15.97138,         !- X,Y,Z Vertex 2 {m}
  -10.41189, -2.539788, 17.57027;         !- X,Y,Z Vertex 3 {m}

Shading:Building:Detailed,
  X-S-141,                                !- Name
  ,                                       !- Transmittance Schedule Name
  ,                                       !- Number of Vertices
  -11.79203, -1.213488, 18.62879,         !- X,Y,Z Vertex 1 {m}
  -10.41189, -2.539788, 17.57027,         !- X,Y,Z Vertex 2 {m}
  -11.04662, -1.060336, 18.62879;         !- X,Y,Z Vertex 3 {m}

Shading:Building:Detailed,
  X-S-142,                                !- Name
  ,                                       !- Transmittance Schedule Name
  ,                                       !- Number of Vertices
  -11.79203, -1.213488, 18.62879,         !- X,Y,Z Vertex 1 {m}