
Version,
  9.3;                                    !- Version Identifier

Timestep,
  4;                                      !- Number of Timesteps per Hour

LifeCycleCost:Parameters,
  Life Cycle Cost Parameters,             !- Name
  EndOfYear,                              !- Discounting Convention
  ConstantDollar,                         !- Inflation Approach
  0.03,                                   !- Real Discount Rate
  ,                                       !- Nominal Discount Rate
  ,                                       !- Inflation
  ,                                       !- Base Date Month
  2011,                                   !- Base Date Year
  ,                                       !- Service Date Month
  2011,                                   !- Service Date Year
  20,                                     !- Length of Study Period in Years
  ,                                       !- Tax rate
  None;                                   !- Depreciation Method

LifeCycleCost:UsePriceEscalation,
  U.S. Avg  Commercial-Electricity,       !- Name
  Electricity,                            !- Resource
  2011,                                   !- Escalation Start Year
  January,                                !- Escalation Start Month
  0.9838,                                 !- Year Escalation 1
  0.9730,                                 !- Year Escalation 2
  0.9632,                                 !- Year Escalation 3
  0.9611,                                 !- Year Escalation 4
  0.9571,                                 !- Year Escalation 5
  0.9553,                                 !- Year Escalation 6
  0.9539,                                 !- Year Escalation 7
  0.9521,                                 !- Year Escalation 8
  0.9546,                                 !- Year Escalation 9
  0.9550,                                 !- Year Escalation 10
  0.9553,                                 !- Year Escalation 11
  0.9564,                                 !- Year Escalation 12
  0.9575,                                 !- Year Escalation 13
  0.9596,                                 !- Year Escalation 14
  0.9618,                                 !- Year Escalation 15
  0.9614,                                 !- Year Escalation 16
  0.9618,                                 !- Year Escalation 17
  0.9618,                                 !- Year Escalation 18
  0.9593,                                 !- Year Escalation 19
  0.9589,                                 !- Year Escalation 20
  0.9607,                                 !- Year Escalation 21
  0.9625,                                 !- Year Escalation 22
  0.9650,                                 !- Year Escalation 23
  0.9708,                                 !- Year Escalation 24
  0.9751,                                 !- Year Escalation 25
  0.9762,                                 !- Year Escalation 26
  0.9766,                                 !- Year Escalation 27
  0.9766,                                 !- Year Escalation 28
  0.9769,                                 !- Year Escalation 29
  0.9773;                                 !- Year Escalation 30

LifeCycleCost:UsePriceEscalation,
  U.S. Avg  Commercial-Distillate Oil,    !- Name
  FuelOilNo1,                             !- Resource
  2011,                                   !- Escalation Start Year
  January,                                !- Escalation Start Month
  0.9714,                                 !- Year Escalation 1
  0.9730,                                 !- Year Escalation 2
  0.9942,                                 !- Year Escalation 3
  1.0164,                                 !- Year Escalation 4
  1.0541,                                 !- Year Escalation 5
  1.0928,                                 !- Year Escalation 6
  1.1267,                                 !- Year Escalation 7
  1.1580,                                 !- Year Escalation 8
  1.1792,                                 !- Year Escalation 9
  1.1967,                                 !- Year Escalation 10
  1.2200,                                 !- Year Escalation 11
  1.2333,                                 !- Year Escalation 12
  1.2566,                                 !- Year Escalation 13
  1.2709,                                 !- Year Escalation 14
  1.2826,                                 !- Year Escalation 15
  1.2985,                                 !- Year Escalation 16
  1.3102,                                 !- Year Escalation 17
  1.3250,                                 !- Year Escalation 18
  1.3261,                                 !- Year Escalation 19
  1.3282,                                 !- Year Escalation 20
  1.3324,                                 !- Year Escalation 21
  1.3356,                                 !- Year Escalation 22
  1.3431,                                 !- Year Escalation 23
  1.3510,                                 !- Year Escalation 24
  1.3568,                                 !- Year Escalation 25
  1.3606,                                 !- Year Escalation 26
  1.3637,                                 !- Year Escalation 27
  1.3674,                                 !- Year Escalation 28
  1.3706,                                 !- Year Escalation 29
  1.3743;                                 !- Year Escalation 30

LifeCycleCost:UsePriceEscalation,
  U.S. Avg  Commercial-Residual Oil,      !- Name
  FuelOilNo2,                             !- Resource
  2011,                                   !- Escalation Start Year
  January,                                !- Escalation Start Month
  0.8469,                                 !- Year Escalation 1
  0.8257,                                 !- Year Escalation 2
  0.8681,                                 !- Year Escalation 3
  0.8988,                                 !- Year Escalation 4
  0.9289,                                 !- Year Escalation 5
  0.9604,                                 !- Year Escalation 6
  0.9897,                                 !- Year Escalation 7
  1.0075,                                 !- Year Escalation 8
  1.0314,                                 !- Year Escalation 9
  1.0554,                                 !- Year Escalation 10
  1.0861,                                 !- Year Escalation 11
  1.1278,                                 !- Year Escalation 12
  1.1497,                                 !- Year Escalation 13
  1.1620,                                 !- Year Escalation 14
  1.1743,                                 !- Year Escalation 15
  1.1852,                                 !- Year Escalation 16
  1.1948,                                 !- Year Escalation 17
  1.2037,                                 !- Year Escalation 18
  1.2071,                                 !- Year Escalation 19
  1.2119,                                 !- Year Escalation 20
  1.2139,                                 !- Year Escalation 21
  1.2194,                                 !- Year Escalation 22
  1.2276,                                 !- Year Escalation 23
  1.2365,                                 !- Year Escalation 24
  1.2420,                                 !- Year Escalation 25
  1.2461,                                 !- Year Escalation 26
  1.2509,                                 !- Year Escalation 27
  1.2550,                                 !- Year Escalation 28
  1.2591,                                 !- Year Escalation 29
  1.2638;                                 !- Year Escalation 30

LifeCycleCost:UsePriceEscalation,
  U.S. Avg  Commercial-Natural gas,       !- Name
  NaturalGas,                             !- Resource
  2011,                                   !- Escalation Start Year
  January,                                !- Escalation Start Month
  0.9823,                                 !- Year Escalation 1
  0.9557,                                 !- Year Escalation 2
  0.9279,                                 !- Year Escalation 3
  0.9257,                                 !- Year Escalation 4
  0.9346,                                 !- Year Escalation 5
  0.9412,                                 !- Year Escalation 6
  0.9512,                                 !- Year Escalation 7
  0.9645,                                 !- Year Escalation 8
  0.9856,                                 !- Year Escalation 9
  1.0067,                                 !- Year Escalation 10
  1.0222,                                 !- Year Escalation 11
  1.0410,                                 !- Year Escalation 12
  1.0610,                                 !- Year Escalation 13
  1.0787,                                 !- Year Escalation 14
  1.0942,                                 !- Year Escalation 15
  1.1098,                                 !- Year Escalation 16
  1.1220,                                 !- Year Escalation 17
  1.1308,                                 !- Year Escalation 18
  1.1386,                                 !- Year Escalation 19
  1.1486,                                 !- Year Escalation 20
  1.1619,                                 !- Year Escalation 21
  1.1763,                                 !- Year Escalation 22
  1.1918,                                 !- Year Escalation 23
  1.2118,                                 !- Year Escalation 24
  1.2284,                                 !- Year Escalation 25
  1.2439,                                 !- Year Escalation 26
  1.2605,                                 !- Year Escalation 27
  1.2772,                                 !- Year Escalation 28
  1.2938,                                 !- Year Escalation 29
  1.3115;                                 !- Year Escalation 30

LifeCycleCost:UsePriceEscalation,
  U.S. Avg  Commercial-Coal,              !- Name
  Coal,                                   !- Resource
  2011,                                   !- Escalation Start Year
  January,                                !- Escalation Start Month
  0.9970,                                 !- Year Escalation 1
  1.0089,                                 !- Year Escalation 2
  1.0089,                                 !- Year Escalation 3
  0.9941,                                 !- Year Escalation 4
  0.9941,                                 !- Year Escalation 5
  1.0000,                                 !- Year Escalation 6
  1.0030,                                 !- Year Escalation 7
  1.0059,                                 !- Year Escalation 8
  1.0089,                                 !- Year Escalation 9
  1.0119,                                 !- Year Escalation 10
  1.0148,                                 !- Year Escalation 11
  1.0178,                                 !- Year Escalation 12
  1.0208,                                 !- Year Escalation 13
  1.0267,                                 !- Year Escalation 14
  1.0297,                                 !- Year Escalation 15
  1.0356,                                 !- Year Escalation 16
  1.0415,                                 !- Year Escalation 17
  1.0534,                                 !- Year Escalation 18
  1.0564,                                 !- Year Escalation 19
  1.0593,                                 !- Year Escalation 20
  1.0653,                                 !- Year Escalation 21
  1.0712,                                 !- Year Escalation 22
  1.0742,                                 !- Year Escalation 23
  1.0801,                                 !- Year Escalation 24
  1.0831,                                 !- Year Escalation 25
  1.0831,                                 !- Year Escalation 26
  1.0861,                                 !- Year Escalation 27
  1.0890,                                 !- Year Escalation 28
  1.0920,                                 !- Year Escalation 29
  1.0950;                                 !- Year Escalation 30

Building,
  1,                                      !- Name
  0,                                      !- North Axis {deg}
  ,                                       !- Terrain
  ,                                       !- Loads Convergence Tolerance Value {W}
  ,                                       !- Temperature Convergence Tolerance Value {deltaC}
  FullExterior,                           !- Solar Distribution
  ,                                       !- Maximum Number of Warmup Days
  ;                                       !- Minimum Number of Warmup Days

! OS:Building, 1
LifeCycleCost:NonrecurringCost,
  LCC_MAT_PV,                             !- Name
  Construction,                           !- Category
  374999.9539194,                         !- Cost
  ServicePeriod,                          !- Start of Costs
  1;                                      !- Years from Start

Shading:Building:Detailed,
  PV - storey-4-roof-space-41,            !- Name
  PV Shading Transmittance Schedule,      !- Transmittance Schedule Name
  ,                                       !- Number of Vertices
  -9.01211304, -9.13372824, 18.62328,     !- X,Y,Z Vertex 1 {m}
  -15.86243208, -2.28343968, 18.62328,    !- X,Y,Z Vertex 2 {m}
  -15.86243208, -20.42928096, 18.62328,   !- X,Y,Z Vertex 3 {m}
  -9.01211304, -27.2796, 18.62328;        !- X,Y,Z Vertex 4 {m}

Shading:Building:Detailed,
  PV - storey-4-roof-space-44,            !- Name
  PV Shading Transmittance Schedule,      !- Transmittance Schedule Name
  ,                                       !- Number of Vertices
  -27.2796, 27.2796, 18.62328,            !- X,Y,Z Vertex 1 {m}
  -20.42928096, 20.42928096, 18.62328,    !- X,Y,Z Vertex 2 {m}
  -15.86243208, 20.42928096, 18.62328,    !- X,Y,Z Vertex 3 {m}
  -9.01211304, 27.2796, 18.62328;         !- X,Y,Z Vertex 4 {m}

Shading:Building:Detailed,
  PV - storey-4-roof-space-45,            !- Name
  PV Shading Transmittance Schedule,      !- Transmittance Schedule Name
  ,                                       !- Number of Vertices
  -9.01211304, 27.2796, 18.62328,         !- X,Y,Z Vertex 1 {m}
  -15.86243208, 20.42928096, 18.62328,    !- X,Y,Z Vertex 2 {m}
  -15.86243208, 2.28343968, 18.62328,     !- X,Y,Z Vertex 3 {m}
  -9.01211304, 9.13372824, 18.62328;      !- X,Y,Z Vertex 4 {m}

Shading:Building:Detailed,
  PV - storey-4-roof-space-48,            !- Name
  PV Shading Transmittance Schedule,      !- Transmittance Schedule Name
  ,                                       !- Number of Vertices
  9.01211304, 27.2796, 18.62328,          !- X,Y,Z Vertex 1 {m}
  15.86243208, 20.42928096, 18.62328,     !- X,Y,Z Vertex 2 {m}
  20.42928096, 20.42928096, 18.62328,     !- X,Y,Z Vertex 3 {m}
  27.2796, 27.2796, 18.62328;             !- X,Y,Z Vertex 4 {m}

Shading:Building:Detailed,
  PV - storey-4-roof-space-51,            !- Name
  PV Shading Transmittance Schedule,      !- Transmittance Schedule Name
  ,                                       !- Number of Vertices
  9.01211304, -27.2796, 18.62328,         !- X,Y,Z Vertex 1 {m}
  15.86243208, -20.42928096, 18.62328,    !- X,Y,Z Vertex 2 {m}
  15.86243208, -2.28343968, 18.62328,     !- X,Y,Z Vertex 3 {m}
  9.01211304, -9.13372824, 18.62328;      !- X,Y,Z Vertex 4 {m}

Shading:Building:Detailed,
  PV - storey-4-roof-space-47,            !- Name
  PV Shading Transmittance Schedule,      !- Transmittance Schedule Name
  ,                                       !- Number of Vertices
  9.01211304, 9.13372824, 18.62328,       !- X,Y,Z Vertex 1 {m}
  15.86243208, 2.28343968, 18.62328,      !- X,Y,Z Vertex 2 {m}
  15.86243208, 20.42928096, 18.62328,     !- X,Y,Z Vertex 3 {m}
  9.01211304, 27.2796, 18.62328;          !- X,Y,Z Vertex 4 {m}

Shading:Building:Detailed,
  PV - storey-4-roof-space-50,            !- Name
  PV Shading Transmittance Schedule,      !- Transmittance Schedule Name
  ,                                       !- Number of Vertices
  27.2796, -27.2796, 18.62328,            !- X,Y,Z Vertex 1 {m}
  20.42928096, -20.42928096, 18.62328,    !- X,Y,Z Vertex 2 {m}
  15.86243208, -20.42928096, 18.62328,    !- X,Y,Z Vertex 3 {m}
  9.01211304, -27.2796, 18.62328;         !- X,Y,Z Vertex 4 {m}

Shading:Building:Detailed,
  PV - storey-4-roof-space-52,            !- Name
  PV Shading Transmittance Schedule,      !- Transmittance Schedule Name
  ,                                       !- Number of Vertices
  15.86243208, -20.42928096, 18.62328,    !- X,Y,Z Vertex 1 {m}
  20.42928096, -20.42928096, 18.62328,    !- X,Y,Z Vertex 2 {m}
  20.42928096, 20.42928096, 18.62328,     !- X,Y,Z Vertex 3 {m}
  15.86243208, 20.42928096, 18.62328,     !- X,Y,Z Vertex 4 {m}
  15.86243208, 2.28343968, 18.62328,      !- X,Y,Z Vertex 5 {m}
  -15.86243208, 2.28343968, 18.62328,     !- X,Y,Z Vertex 6 {m}
  -15.86243208, 20.42928096, 18.62328,    !- X,Y,Z Vertex 7 {m}
  -20.42928096, 20.42928096, 18.62328,    !- X,Y,Z Vertex 8 {m}
  -20.42928096, -20.42928096, 18.62328,   !- X,Y,Z Vertex 9 {m}
  -15.86243208, -20.42928096, 18.62328,   !- X,Y,Z Vertex 10 {m}
  -15.86243208, -2.28343968, 18.62328,    !- X,Y,Z Vertex 11 {m}
  15.86243208, -2.28343968, 18.62328;     !- X,Y,Z Vertex 12 {m}

Shading:Building:Detailed,
  PV - storey-4-roof-space-46,            !- Name
  PV Shading Transmittance Schedule,      !- Transmittance Schedule Name
  ,                                       !- Number of Vertices
  -9.01211304, 9.13372824, 18.62328,      !- X,Y,Z Vertex 1 {m}
  -15.86243208, 2.28343968, 18.62328,     !- X,Y,Z Vertex 2 {m}
  15.86243208, 2.28343968, 18.62328,      !- X,Y,Z Vertex 3 {m}
  9.01211304, 9.13372824, 18.62328;       !- X,Y,Z Vertex 4 {m}

Shading:Building:Detailed,
  PV - storey-4-roof-space-49,            !- Name
  PV Shading Transmittance Schedule,      !- Transmittance Schedule Name
  ,                                       !- Number of Vertices
  27.2796, 27.2796, 18.62328,             !- X,Y,Z Vertex 1 {m}
  20.42928096, 20.42928096, 18.62328,     !- X,Y,Z Vertex 2 {m}
  20.42928096, -20.42928096, 18.62328,    !- X,Y,Z Vertex 3 {m}
  27.2796, -27.2796, 18.62328;            !- X,Y,Z Vertex 4 {m}

Shading:Building:Detailed,
  PV - storey-4-roof-space-43,            !- Name
  PV Shading Transmittance Schedule,      !- Transmittance Schedule Name
  ,                                       !- Number of Vertices
  -27.2796, -27.2796, 18.62328,           !- X,Y,Z Vertex 1 {m}
  -20.42928096, -20.42928096, 18.62328,   !- X,Y,Z Vertex 2 {m}
  -20.42928096, 20.42928096, 18.62328,    !- X,Y,Z Vertex 3 {m}
  -27.2796, 27.2796, 18.62328;            !- X,Y,Z Vertex 4 {m}

Shading:Building:Detailed,
  PV - storey-4-roof-space-42,            !- Name
  PV Shading Transmittance Schedule,      !- Transmittance Schedule Name
  ,                                       !- Number of Vertices
  -9.01211304, -27.2796, 18.62328,        !- X,Y,Z Vertex 1 {m}
  -15.86243208, -20.42928096, 18.62328,   !- X,Y,Z Vertex 2 {m}
  -20.42928096, -20.42928096, 18.62328,   !- X,Y,Z Vertex 3 {m}
  -27.2796, -27.2796, 18.62328;           !- X,Y,Z Vertex 4 {m}

Shading:Building:Detailed,
  PV - storey-4-roof-space-40,            !- Name
  PV Shading Transmittance Schedule,      !- Transmittance Schedule Name
  ,                                       !- Number of Vertices
  9.01211304, -9.13372824, 18.62328,      !- X,Y,Z Vertex 1 {m}
  15.86243208, -2.28343968, 18.62328,     !- X,Y,Z Vertex 2 {m}
  -15.86243208, -2.28343968, 18.62328,    !- X,Y,Z Vertex 3 {m}
  -9.01211304, -9.13372824, 18.62328;     !- X,Y,Z Vertex 4 {m}

Shading:Building:Detailed,
  fin,                                    !- Name
  ,                                       !- Transmittance Schedule Name
  ,                                       !- Number of Vertices
  4.88155488, -9.13372824, 4.3434,        !- X,Y,Z Vertex 1 {m}
  4.88155488, -9.13372824, 0.2286,        !- X,Y,Z Vertex 2 {m}
  4.88155488, -10.35292824, 0.2286,       !- X,Y,Z Vertex 3 {m}
  4.88155488, -10.35292824, 4.3434;       !- X,Y,Z Vertex 4 {m}

Shading:Building:Detailed,
  overhang,                               !- Name
  ,                                       !- Transmittance Schedule Name
  ,                                       !- Number of Vertices
  4.88155488, -9.13372824, 4.3434,        !- X,Y,Z Vertex 1 {m}
  4.88155488, -10.35292824, 4.3434,       !- X,Y,Z Vertex 2 {m}
  8.63659944, -10.35292824, 4.3434,       !- X,Y,Z Vertex 3 {m}
  8.63659944, -9.13372824, 4.3434;        !- X,Y,Z Vertex 4 {m}

Shading:Building:Detailed,
  {00029a2f-30b6-464d-b8be-aa86176dcc7d}, !- Name
  ,                                       !- Transmittance Schedule Name
  ,                                       !- Number of Vertices
  9.01211304, 13.2921756, 4.3434,         !- X,Y,Z Vertex 1 {m}
  9.01211304, 13.2921756, 0.2286,         !- X,Y,Z Vertex 2 {m}
  7.79291304, 13.2921756, 0.2286,         !- X,Y,Z Vertex 3 {m}
  7.79291304, 13.2921756, 4.3434;         !- X,Y,Z Vertex 4 {m}

Shading:Building:Detailed,
  {0043d31b-dad4-4d12-8934-296dd4e46ac2}, !- Name
  ,                                       !- Transmittance Schedule Name
  ,                                       !- Number of Vertices
  9.39268632, -27.2796, 4.3434,           !- X,Y,Z Vertex 1 {m}
  9.39268632, -28.4988, 4.3434,           !- X,Y,Z Vertex 2 {m}
  13.19841912, -28.4988, 4.3434,          !- X,Y,Z Vertex 3 {m}
  13.19841912, -27.2796, 4.3434;          !- X,Y,Z Vertex 4 {m}

Shading:Building:Detailed,
  {019228ce-9ead-4889-8cdb-f0af353da31a}, !- Name
  ,                                       !- Transmittance Schedule Name
  ,                                       !- Number of Vertices
  -4.88155488, -10.35292824, 13.4874,     !- X,Y,Z Vertex 1 {m}
  -4.88155488, -10.35292824, 9.3726,      !- X,Y,Z Vertex 2 {m}
  -4.88155488, -9.13372824, 9.3726,       !- X,Y,Z Vertex 3 {m}
  -4.88155488, -9.13372824, 13.4874;      !- X,Y,Z Vertex 4 {m}

Shading:Building:Detailed,
  {022c9987-2364-40f0-bf29-1c83abaf0947}, !- Name
  ,                                       !- Transmittance Schedule Name
  ,                                       !- Number of Vertices
  9.01211304, 26.90155656, 13.4874,       !- X,Y,Z Vertex 1 {m}
  7.79291304, 26.90155656, 13.4874,       !- X,Y,Z Vertex 2 {m}
  7.79291304, 23.12118312, 13.4874,       !- X,Y,Z Vertex 3 {m}
  9.01211304, 23.12118312, 13.4874;       !- X,Y,Z Vertex 4 {m}

Shading:Building:Detailed,
  {0270e262-ba22-423f-9921-7fc7828045d4}, !- Name
  ,                                       !- Transmittance Schedule Name
  ,                                       !- Number of Vertices
  13.19841912, -28.4988, 18.0594,         !- X,Y,Z Vertex 1 {m}
  13.19841912, -28.4988, 13.9446,         !- X,Y,Z Vertex 2 {m}
  13.19841912, -27.2796, 13.9446,         !- X,Y,Z Vertex 3 {m}
  13.19841912, -27.2796, 18.0594;         !- X,Y,Z Vertex 4 {m}

Shading:Building:Detailed,
  {0368486b-04e5-43e5-af8a-99ea9d770864}, !- Name
  ,                                       !- Transmittance Schedule Name
  ,                                       !- Number of Vertices
  9.01211304, 26.90155656, 18.0594,       !- X,Y,Z Vertex 1 {m}
  7.79291304, 26.90155656, 18.0594,       !- X,Y,Z Vertex 2 {m}
  7.79291304, 23.12118312, 18.0594,       !- X,Y,Z Vertex 3 {m}
  9.01211304, 23.12118312, 18.0594;       !- X,Y,Z Vertex 4 {m}

Shading:Building:Detailed,
  {03cd41b9-43eb-431f-9953-a8f11e7d62dd}, !- Name
  ,                                       !- Transmittance Schedule Name
  ,                                       !- Number of Vertices
  9.01211304, -14.048232, 18.0594,        !- X,Y,Z Vertex 1 {m}
  7.79291304, -14.048232, 18.0594,        !- X,Y,Z Vertex 2 {m}
  7.79291304, -17.82863592, 18.0594,      !- X,Y,Z Vertex 3 {m}
  9.01211304, -17.82863592, 18.0594;      !- X,Y,Z Vertex 4 {m}

Shading:Building:Detailed,
  {0432f55e-cda1-4d48-8e12-bd0c1469f227}, !- Name
  ,                                       !- Transmittance Schedule Name
  ,                                       !- Number of Vertices
  7.79291304, -13.2921756, 18.0594,       !- X,Y,Z Vertex 1 {m}
  7.79291304, -13.2921756, 13.9446,       !- X,Y,Z Vertex 2 {m}
  9.01211304, -13.2921756, 13.9446,       !- X,Y,Z Vertex 3 {m}
  9.01211304, -13.2921756, 18.0594;       !- X,Y,Z Vertex 4 {m}

Shading:Building:Detailed,
  {04a62112-c63c-49a0-bfde-71395aaba992}, !- Name
  ,                                       !- Transmittance Schedule Name
  ,                                       !- Number of Vertices
  8.63659944, -10.35292824, 18.0594,      !- X,Y,Z Vertex 1 {m}
  8.63659944, -10.35292824, 13.9446,      !- X,Y,Z Vertex 2 {m}
  8.63659944, -9.13372824, 13.9446,       !- X,Y,Z Vertex 3 {m}
  8.63659944, -9.13372824, 18.0594;       !- X,Y,Z Vertex 4 {m}

Shading:Building:Detailed,
  {05836fe8-98aa-4541-98dc-9ecb7c97aff9}, !- Name
  ,                                       !- Transmittance Schedule Name
  ,                                       !- Number of Vertices
  7.79291304, 23.12118312, 8.9154,        !- X,Y,Z Vertex 1 {m}
  7.79291304, 23.12118312, 4.8006,        !- X,Y,Z Vertex 2 {m}
  9.01211304, 23.12118312, 4.8006,        !- X,Y,Z Vertex 3 {m}
  9.01211304, 23.12118312, 8.9154;        !- X,Y,Z Vertex 4 {m}

Shading:Building:Detailed,
  {09a4c22a-b8ca-49cf-a2a3-7a52189e86e6}, !- Name
  ,                                       !- Transmittance Schedule Name
  ,                                       !- Number of Vertices
  9.01211304, 13.2921756, 4.3434,         !- X,Y,Z Vertex 1 {m}
  7.79291304, 13.2921756, 4.3434,         !- X,Y,Z Vertex 2 {m}
  7.79291304, 9.51177168, 4.3434,         !- X,Y,Z Vertex 3 {m}
  9.01211304, 9.51177168, 4.3434;         !- X,Y,Z Vertex 4 {m}

Shading:Building:Detailed,
  {0a5a79d7-3a99-4a11-a4c6-7564a8f83ff8}, !- Name
  ,                                       !- Transmittance Schedule Name
  ,                                       !- Number of Vertices
  9.01211304, 13.2921756, 8.9154,         !- X,Y,Z Vertex 1 {m}
  9.01211304, 13.2921756, 4.8006,         !- X,Y,Z Vertex 2 {m}
  7.79291304, 13.2921756, 4.8006,         !- X,Y,Z Vertex 3 {m}
  7.79291304, 13.2921756, 8.9154;         !- X,Y,Z Vertex 4 {m}

Shading:Building:Detailed,
  {0dccfd65-bc2b-4020-b145-dc07b123c4c4}, !- Name
  ,                                       !- Transmittance Schedule Name
  ,                                       !- Number of Vertices
  7.79291304, -17.82863592, 8.9154,       !- X,Y,Z Vertex 1 {m}
  7.79291304, -17.82863592, 4.8006,       !- X,Y,Z Vertex 2 {m}
  9.01211304, -17.82863592, 4.8006,       !- X,Y,Z Vertex 3 {m}
  9.01211304, -17.82863592, 8.9154;       !- X,Y,Z Vertex 4 {m}

Shading:Building:Detailed,
  {0e448fc0-358a-436f-b3a2-8782c770cc56}, !- Name
  ,                                       !- Transmittance Schedule Name
  ,                                       !- Number of Vertices
  7.79291304, 18.5847228, 18.0594,        !- X,Y,Z Vertex 1 {m}
  7.79291304, 18.5847228, 13.9446,        !- X,Y,Z Vertex 2 {m}
  9.01211304, 18.5847228, 13.9446,        !- X,Y,Z Vertex 3 {m}
  9.01211304, 18.5847228, 18.0594;        !- X,Y,Z Vertex 4 {m}

Shading:Building:Detailed,
  {0e9d6b7e-8b97-474a-94bd-fe237810d5d7}, !- Name
  ,                                       !- Transmittance Schedule Name
  ,                                       !- Number of Vertices
  26.89902672, -28.4988, 13.4874,         !- X,Y,Z Vertex 1 {m}
  26.89902672, -28.4988, 9.3726,          !- X,Y,Z Vertex 2 {m}
  26.89902672, -27.2796, 9.3726,          !- X,Y,Z Vertex 3 {m}
  26.89902672, -27.2796, 13.4874;         !- X,Y,Z Vertex 4 {m}

Shading:Building:Detailed,
  {114f6f3e-040d-4316-b312-50aad66d370e}, !- Name
  ,                                       !- Transmittance Schedule Name
  ,                                       !- Number of Vertices
  -28.4988, 1.13666016, 8.9154,           !- X,Y,Z Vertex 1 {m}
  -28.4988, 1.13666016, 4.8006,           !- X,Y,Z Vertex 2 {m}
  -27.2796, 1.13666016, 4.8006,           !- X,Y,Z Vertex 3 {m}
  -27.2796, 1.13666016, 8.9154;           !- X,Y,Z Vertex 4 {m}

Shading:Building:Detailed,
  {116adfd3-8dcb-4dbf-b3b1-fa133578c1a2}, !- Name
  ,                                       !- Transmittance Schedule Name
  ,                                       !- Number of Vertices
  9.01211304, -23.12118312, 18.0594,      !- X,Y,Z Vertex 1 {m}
  9.01211304, -23.12118312, 13.9446,      !- X,Y,Z Vertex 2 {m}
  7.79291304, -23.12118312, 13.9446,      !- X,Y,Z Vertex 3 {m}
  7.79291304, -23.12118312, 18.0594;      !- X,Y,Z Vertex 4 {m}

Shading:Building:Detailed,
  {11759294-6f98-4c36-a094-b8b771d7da5d}, !- Name
  ,                                       !- Transmittance Schedule Name
  ,                                       !- Number of Vertices
  9.01211304, 13.2921756, 13.4874,        !- X,Y,Z Vertex 1 {m}
  9.01211304, 13.2921756, 9.3726,         !- X,Y,Z Vertex 2 {m}
  7.79291304, 13.2921756, 9.3726,         !- X,Y,Z Vertex 3 {m}
  7.79291304, 13.2921756, 13.4874;        !- X,Y,Z Vertex 4 {m}

Shading:Building:Detailed,
  {11b146be-4f23-487a-8096-70343c28d525}, !- Name
  ,                                       !- Transmittance Schedule Name
  ,                                       !- Number of Vertices
  -22.33214736, -27.2796, 18.0594,        !- X,Y,Z Vertex 1 {m}
  -22.33214736, -27.2796, 13.9446,        !- X,Y,Z Vertex 2 {m}
  -22.33214736, -28.4988, 13.9446,        !- X,Y,Z Vertex 3 {m}
  -22.33214736, -28.4988, 18.0594;        !- X,Y,Z Vertex 4 {m}

Shading:Building:Detailed,
  {12a19602-86e2-45a4-b1bb-f88c04acf9a0}, !- Name
  ,                                       !- Transmittance Schedule Name
  ,                                       !- Number of Vertices
  7.79291304, -26.90155656, 4.3434,       !- X,Y,Z Vertex 1 {m}
  7.79291304, -26.90155656, 0.2286,       !- X,Y,Z Vertex 2 {m}
  9.01211304, -26.90155656, 0.2286,       !- X,Y,Z Vertex 3 {m}
  9.01211304, -26.90155656, 4.3434;       !- X,Y,Z Vertex 4 {m}

Shading:Building:Detailed,
  {14414252-24ff-41d5-b504-42ae6a97beb1}, !- Name
  ,                                       !- Transmittance Schedule Name