
OS:Version,
  {e0eeb9da-8848-40a9-9ed7-9232812f1059}, !- Handle
  3.0.1,                                  !- Version Identifier
  rc2;                                    !- Prerelease Identifier

OS:ThermalZone,
  {7959e279-6b29-4cb4-9bdf-333a70e13b41}, !- Handle
  storey-1-zone-1,                        !- Name
  ,                                       !- Multiplier
  ,                                       !- Ceiling Height {m}
  ,                                       !- Volume {m3}
  ,                                       !- Floor Area {m2}
  ,                                       !- Zone Inside Convection Algorithm
  ,                                       !- Zone Outside Convection Algorithm
  ,                                       !- Zone Conditioning Equipment List Name
  {930ab109-7f2b-45a0-9dd6-df02c68efbd6}, !- Zone Air Inlet Port List
  {d00b25a7-2a39-49cb-976b-e0b72b35894b}, !- Zone Air Exhaust Port List
  {9875c7e6-16d2-44e8-aa69-0acd6f14551f}, !- Zone Air Node Name
  {1e7e6bad-3df1-49e1-b39e-a2b6ef3b4383}, !- Zone Return Air Port List
  ,                                       !- Primary Daylighting Control Name
  ,                                       !- Fraction of Zone Controlled by Primary Daylighting Control
  ,                                       !- Secondary Daylighting Control Name
  ,                                       !- Fraction of Zone Controlled by Secondary Daylighting Control
  ,                                       !- Illuminance Map Name
  ,                                       !- Group Rendering Name
  {2407b3a5-c536-4c6d-a0d7-80eb88440266}, !- Thermostat Name
  No;                                     !- Use Ideal Air Loads

OS:Node,
  {675f77c2-ed75-4d3a-a93c-acf0ac55f68f}, !- Handle
  storey-1-zone-1 Zone Air Node,          !- Name
  {9875c7e6-16d2-44e8-aa69-0acd6f14551f}, !- Inlet Port
  ;                                       !- Outlet Port

OS:Connection,
  {9875c7e6-16d2-44e8-aa69-0acd6f14551f}, !- Handle
  {48fc2405-71a6-4b55-a29f-97b66a7eef1a}, !- Name
  {7959e279-6b29-4cb4-9bdf-333a70e13b41}, !- Source Object
  11,                                     !- Outlet Port
  {675f77c2-ed75-4d3a-a93c-acf0ac55f68f}, !- Target Object
  2;                                      !- Inlet Port

OS:PortList,
  {930ab109-7f2b-45a0-9dd6-df02c68efbd6}, !- Handle
  {67985ff0-188d-479d-bc2b-58da1c336f6c}, !- Name
  {7959e279-6b29-4cb4-9bdf-333a70e13b41}, !- HVAC Component
  {03db6a3f-ba26-4170-ac61-a2bacee25511}; !- Port 1

OS:PortList,
  {d00b25a7-2a39-49cb-976b-e0b72b35894b}, !- Handle
  {b75d820f-b474-4aff-9354-c71a50745130}, !- Name
  {7959e279-6b29-4cb4-9bdf-333a70e13b41}; !- HVAC Component

OS:PortList,
  {1e7e6bad-3df1-49e1-b39e-a2b6ef3b4383}, !- Handle
  {9b50db66-98d6-407b-bec0-3a8be3768acc}, !- Name
  {7959e279-6b29-4cb4-9bdf-333a70e13b41}, !- HVAC Component
  {0ac2f510-ac5a-4327-98fc-6d7a789c71a8}; !- Port 1

OS:Sizing:Zone,
  {61febe8b-6c80-4f32-bcc9-5df68e6d5089}, !- Handle
  {7959e279-6b29-4cb4-9bdf-333a70e13b41}, !- Zone or ZoneList Name
  SupplyAirTemperature,                   !- Zone Cooling Design Supply Air Temperature Input Method
  12.7777777777778,                       !- Zone Cooling Design Supply Air Temperature {C}
  11.11,                                  !- Zone Cooling Design Supply Air Temperature Difference {deltaC}
  SupplyAirTemperature,                   !- Zone Heating Design Supply Air Temperature Input Method
  50.0000000000001,                       !- Zone Heating Design Supply Air Temperature {C}
  11.11,                                  !- Zone Heating Design Supply Air Temperature Difference {deltaC}
  0.0085,                                 !- Zone Cooling Design Supply Air Humidity Ratio {kg-H2O/kg-air}
  0.008,                                  !- Zone Heating Design Supply Air Humidity Ratio {kg-H2O/kg-air}
  ,                                       !- Zone Heating Sizing Factor
  ,                                       !- Zone Cooling Sizing Factor
  DesignDay,                              !- Cooling Design Air Flow Method
  ,                                       !- Cooling Design Air Flow Rate {m3/s}
  ,                                       !- Cooling Minimum Air Flow per Zone Floor Area {m3/s-m2}
  ,                                       !- Cooling Minimum Air Flow {m3/s}
  ,                                       !- Cooling Minimum Air Flow Fraction
  DesignDay,                              !- Heating Design Air Flow Method
  ,                                       !- Heating Design Air Flow Rate {m3/s}
  ,                                       !- Heating Maximum Air Flow per Zone Floor Area {m3/s-m2}
  ,                                       !- Heating Maximum Air Flow {m3/s}
  ,                                       !- Heating Maximum Air Flow Fraction
  No,                                     !- Account for Dedicated Outdoor Air System
  NeutralSupplyAir,                       !- Dedicated Outdoor Air System Control Strategy
  autosize,                               !- Dedicated Outdoor Air Low Setpoint Temperature for Design {C}
  autosize;                               !- Dedicated Outdoor Air High Setpoint Temperature for Design {C}

OS:ZoneHVAC:EquipmentList,
  {68aad921-6226-45a3-a6c0-7aa8a930f3f0}, !- Handle
  storey-1-zone-1 Zone HVAC Equipment List, !- Name
  {7959e279-6b29-4cb4-9bdf-333a70e13b41}, !- Thermal Zone
  ,                                       !- Load Distribution Scheme
  {4dac40b8-72ee-49c2-af63-bde324263dcc}, !- Zone Equipment 1
  1,                                      !- Zone Equipment Cooling Sequence 1
  1,                                      !- Zone Equipment Heating or No-Load Sequence 1
  ,                                       !- Zone Equipment Sequential Cooling Fraction Schedule Name 1
  ;                                       !- Zone Equipment Sequential Heating Fraction Schedule Name 1

OS:AdditionalProperties,
  {a5160e96-21c9-4ef9-8f20-3edd755378b7}, !- Handle
  {7959e279-6b29-4cb4-9bdf-333a70e13b41}, !- Object Name
  gbXMLId,                                !- Feature Name 1
  String,                                 !- Feature Data Type 1
  zone-1;                                 !- Feature Value 1

OS:ThermalZone,
  {8ba5bb44-ef8e-4484-963a-a0c56380237c}, !- Handle
  storey-1-zone-2,                        !- Name
  ,                                       !- Multiplier
  ,                                       !- Ceiling Height {m}
  ,                                       !- Volume {m3}
  ,                                       !- Floor Area {m2}
  ,                                       !- Zone Inside Convection Algorithm
  ,                                       !- Zone Outside Convection Algorithm
  ,                                       !- Zone Conditioning Equipment List Name
  {b1631abd-3f8c-4a82-9f06-f1668181e4a6}, !- Zone Air Inlet Port List
  {b3929e11-ce0f-4867-b15a-99f728e827fd}, !- Zone Air Exhaust Port List
  {8968b824-5a6d-45fa-a649-350ec770b82e}, !- Zone Air Node Name
  {dae39d77-ea2a-41dd-8f7c-5a2cee332948}, !- Zone Return Air Port List
  ,                                       !- Primary Daylighting Control Name
  ,                                       !- Fraction of Zone Controlled by Primary Daylighting Control
  ,                                       !- Secondary Daylighting Control Name
  ,                                       !- Fraction of Zone Controlled by Secondary Daylighting Control
  ,                                       !- Illuminance Map Name
  ,                                       !- Group Rendering Name
  {6f9076bb-7afd-4adf-8a11-bd5be961ef47}, !- Thermostat Name
  No;                                     !- Use Ideal Air Loads

OS:Node,
  {711f0815-3b9b-4565-98b0-5f1db9edafd7}, !- Handle
  storey-1-zone-2 Zone Air Node,          !- Name
  {8968b824-5a6d-45fa-a649-350ec770b82e}, !- Inlet Port
  ;                                       !- Outlet Port

OS:Connection,
  {8968b824-5a6d-45fa-a649-350ec770b82e}, !- Handle
  {db3d5925-daad-427d-a2ba-9307d4829e30}, !- Name
  {8ba5bb44-ef8e-4484-963a-a0c56380237c}, !- Source Object
  11,                                     !- Outlet Port
  {711f0815-3b9b-4565-98b0-5f1db9edafd7}, !- Target Object
  2;                                      !- Inlet Port

OS:PortList,
  {b1631abd-3f8c-4a82-9f06-f1668181e4a6}, !- Handle
  {428b3ccd-f2f9-4c3d-a9a0-1461754e2c96}, !- Name
  {8ba5bb44-ef8e-4484-963a-a0c56380237c}, !- HVAC Component
  {fec7c938-6649-43a0-8228-4fce67984817}; !- Port 1

OS:PortList,
  {b3929e11-ce0f-4867-b15a-99f728e827fd}, !- Handle
  {79c723e5-c687-4b3a-bda6-0df518219b9a}, !- Name
  {8ba5bb44-ef8e-4484-963a-a0c56380237c}; !- HVAC Component

OS:PortList,
  {dae39d77-ea2a-41dd-8f7c-5a2cee332948}, !- Handle
  {5f69fc81-9ba0-40db-8f27-c459f3885f55}, !- Name
  {8ba5bb44-ef8e-4484-963a-a0c56380237c}, !- HVAC Component
  {7f6c1a0b-8920-4232-baab-029bb94178ec}; !- Port 1

OS:Sizing:Zone,
  {d4f8b349-dfdf-4acd-90c1-6811dd400f1f}, !- Handle
  {8ba5bb44-ef8e-4484-963a-a0c56380237c}, !- Zone or ZoneList Name
  SupplyAirTemperature,                   !- Zone Cooling Design Supply Air Temperature Input Method
  12.7777777777778,                       !- Zone Cooling Design Supply Air Temperature {C}
  11.11,                                  !- Zone Cooling Design Supply Air Temperature Difference {deltaC}
  SupplyAirTemperature,                   !- Zone Heating Design Supply Air Temperature Input Method
  50.0000000000001,                       !- Zone Heating Design Supply Air Temperature {C}
  11.11,                                  !- Zone Heating Design Supply Air Temperature Difference {deltaC}
  0.0085,                                 !- Zone Cooling Design Supply Air Humidity Ratio {kg-H2O/kg-air}
  0.008,                                  !- Zone Heating Design Supply Air Humidity Ratio {kg-H2O/kg-air}
  ,                                       !- Zone Heating Sizing Factor
  ,                                       !- Zone Cooling Sizing Factor
  DesignDay,                              !- Cooling Design Air Flow Method
  ,                                       !- Cooling Design Air Flow Rate {m3/s}
  ,                                       !- Cooling Minimum Air Flow per Zone Floor Area {m3/s-m2}
  ,                                       !- Cooling Minimum Air Flow {m3/s}
  ,                                       !- Cooling Minimum Air Flow Fraction
  DesignDay,                              !- Heating Design Air Flow Method
  ,                                       !- Heating Design Air Flow Rate {m3/s}
  ,                                       !- Heating Maximum Air Flow per Zone Floor Area {m3/s-m2}
  ,                                       !- Heating Maximum Air Flow {m3/s}
  ,                                       !- Heating Maximum Air Flow Fraction
  No,                                     !- Account for Dedicated Outdoor Air System
  NeutralSupplyAir,                       !- Dedicated Outdoor Air System Control Strategy
  autosize,                               !- Dedicated Outdoor Air Low Setpoint Temperature for Design {C}
  autosize;                               !- Dedicated Outdoor Air High Setpoint Temperature for Design {C}

OS:ZoneHVAC:EquipmentList,
  {272debdc-0262-4bcf-a50a-845a98643008}, !- Handle
  storey-1-zone-2 Zone HVAC Equipment List, !- Name
  {8ba5bb44-ef8e-4484-963a-a0c56380237c}, !- Thermal Zone
  ,                                       !- Load Distribution Scheme
  {b235f837-5648-496d-b075-2ae2f5ec400c}, !- Zone Equipment 1
  1,                                      !- Zone Equipment Cooling Sequence 1
  1,                                      !- Zone Equipment Heating or No-Load Sequence 1
  ,                                       !- Zone Equipment Sequential Cooling Fraction Schedule Name 1
  ;                                       !- Zone Equipment Sequential Heating Fraction Schedule Name 1

OS:AdditionalProperties,
  {648d529f-7914-4f56-a75e-52a54abe9563}, !- Handle
  {8ba5bb44-ef8e-4484-963a-a0c56380237c}, !- Object Name
  gbXMLId,                                !- Feature Name 1
  String,                                 !- Feature Data Type 1
  zone-2;                                 !- Feature Value 1

OS:ThermalZone,
  {62fd6f9d-27ee-42fa-b172-ed8cf82a6b89}, !- Handle
  storey-1-zone-3,                        !- Name
  ,                                       !- Multiplier
  ,                                       !- Ceiling Height {m}
  ,                                       !- Volume {m3}
  ,                                       !- Floor Area {m2}
  ,                                       !- Zone Inside Convection Algorithm
  ,                                       !- Zone Outside Convection Algorithm
  ,                                       !- Zone Conditioning Equipment List Name
  {e4b106cf-83cd-4f14-9d86-e6074129e4d5}, !- Zone Air Inlet Port List
  {6fed9fc9-b3cb-4ab5-b80c-5317b974aee9}, !- Zone Air Exhaust Port List
  {d3ce9fdc-f0da-4839-8f0a-0c405884fb90}, !- Zone Air Node Name
  {18f3cce3-6db2-4c1b-bb10-a88186f5bccc}, !- Zone Return Air Port List
  ,                                       !- Primary Daylighting Control Name
  ,                                       !- Fraction of Zone Controlled by Primary Daylighting Control
  ,                                       !- Secondary Daylighting Control Name
  ,                                       !- Fraction of Zone Controlled by Secondary Daylighting Control
  ,                                       !- Illuminance Map Name
  ,                                       !- Group Rendering Name
  {eb8971fc-56ec-4724-a821-bb3743d9b23f}, !- Thermostat Name
  No;                                     !- Use Ideal Air Loads

OS:Node,
  {93c80ed5-d32b-4770-b9ff-419eb5f1196f}, !- Handle
  storey-1-zone-3 Zone Air Node,          !- Name
  {d3ce9fdc-f0da-4839-8f0a-0c405884fb90}, !- Inlet Port
  ;                                       !- Outlet Port

OS:Connection,
  {d3ce9fdc-f0da-4839-8f0a-0c405884fb90}, !- Handle
  {17854578-ebaf-47d4-9432-97235312239d}, !- Name
  {62fd6f9d-27ee-42fa-b172-ed8cf82a6b89}, !- Source Object
  11,                                     !- Outlet Port
  {93c80ed5-d32b-4770-b9ff-419eb5f1196f}, !- Target Object
  2;                                      !- Inlet Port

OS:PortList,
  {e4b106cf-83cd-4f14-9d86-e6074129e4d5}, !- Handle
  {b26300b3-9a46-4b01-ae43-e8d856e15beb}, !- Name
  {62fd6f9d-27ee-42fa-b172-ed8cf82a6b89}, !- HVAC Component
  {fe292a59-5f0a-4151-b4ac-3f96bbf8ca7d}; !- Port 1

OS:PortList,
  {6fed9fc9-b3cb-4ab5-b80c-5317b974aee9}, !- Handle
  {0038f100-9e0d-4883-95f2-fa5e1502197d}, !- Name
  {62fd6f9d-27ee-42fa-b172-ed8cf82a6b89}; !- HVAC Component

OS:PortList,
  {18f3cce3-6db2-4c1b-bb10-a88186f5bccc}, !- Handle
  {ec900335-b195-46b5-9d86-8e2c1aed9fdf}, !- Name
  {62fd6f9d-27ee-42fa-b172-ed8cf82a6b89}, !- HVAC Component
  {857899d1-dfaa-4a5a-859d-762e34b5418c}; !- Port 1

OS:Sizing:Zone,
  {6762a1cb-73f1-4c0e-8ae9-25e28d0c8e80}, !- Handle
  {62fd6f9d-27ee-42fa-b172-ed8cf82a6b89}, !- Zone or ZoneList Name
  SupplyAirTemperature,                   !- Zone Cooling Design Supply Air Temperature Input Method
  12.7777777777778,                       !- Zone Cooling Design Supply Air Temperature {C}
  11.11,                                  !- Zone Cooling Design Supply Air Temperature Difference {deltaC}
  SupplyAirTemperature,                   !- Zone Heating Design Supply Air Temperature Input Method
  50.0000000000001,                       !- Zone Heating Design Supply Air Temperature {C}
  11.11,                                  !- Zone Heating Design Supply Air Temperature Difference {deltaC}
  0.0085,                                 !- Zone Cooling Design Supply Air Humidity Ratio {kg-H2O/kg-air}
  0.008,                                  !- Zone Heating Design Supply Air Humidity Ratio {kg-H2O/kg-air}
  ,                                       !- Zone Heating Sizing Factor
  ,                                       !- Zone Cooling Sizing Factor
  DesignDay,                              !- Cooling Design Air Flow Method
  ,                                       !- Cooling Design Air Flow Rate {m3/s}
  ,                                       !- Cooling Minimum Air Flow per Zone Floor Area {m3/s-m2}
  ,                                       !- Cooling Minimum Air Flow {m3/s}
  ,                                       !- Cooling Minimum Air Flow Fraction
  DesignDay,                              !- Heating Design Air Flow Method
  ,                                       !- Heating Design Air Flow Rate {m3/s}
  ,                                       !- Heating Maximum Air Flow per Zone Floor Area {m3/s-m2}
  ,                                       !- Heating Maximum Air Flow {m3/s}
  ,                                       !- Heating Maximum Air Flow Fraction
  No,                                     !- Account for Dedicated Outdoor Air System
  NeutralSupplyAir,                       !- Dedicated Outdoor Air System Control Strategy
  autosize,                               !- Dedicated Outdoor Air Low Setpoint Temperature for Design {C}
  autosize;                               !- Dedicated Outdoor Air High Setpoint Temperature for Design {C}

OS:ZoneHVAC:EquipmentList,
  {0188e1f7-59a6-490d-8c1a-0ce46c5f32ed}, !- Handle
  storey-1-zone-3 Zone HVAC Equipment List, !- Name
  {62fd6f9d-27ee-42fa-b172-ed8cf82a6b89}, !- Thermal Zone
  ,                                       !- Load Distribution Scheme
  {98005a2e-5488-44b1-a21c-e36bae13a924}, !- Zone Equipment 1
  1,                                      !- Zone Equipment Cooling Sequence 1
  1,                                      !- Zone Equipment Heating or No-Load Sequence 1
  ,                                       !- Zone Equipment Sequential Cooling Fraction Schedule Name 1
  ;                                       !- Zone Equipment Sequential Heating Fraction Schedule Name 1

OS:AdditionalProperties,
  {ff5327d1-2d11-42f2-8b59-31f9199e37f1}, !- Handle
  {62fd6f9d-27ee-42fa-b172-ed8cf82a6b89}, !- Object Name
  gbXMLId,                                !- Feature Name 1
  String,                                 !- Feature Data Type 1
  zone-3;                                 !- Feature Value 1

OS:ThermalZone,
  {a78eaf18-e478-4911-a798-63cc7c9ba06f}, !- Handle
  storey-1-zone-4,                        !- Name
  ,                                       !- Multiplier
  ,                                       !- Ceiling Height {m}
  ,                                       !- Volume {m3}
  ,                                       !- Floor Area {m2}
  ,                                       !- Zone Inside Convection Algorithm
  ,                                       !- Zone Outside Convection Algorithm
  ,                                       !- Zone Conditioning Equipment List Name
  {d6e566d8-64c6-4de1-b9c0-03ec85b3b1c7}, !- Zone Air Inlet Port List
  {0d5266e1-608c-4a1f-af9f-88817db8ca71}, !- Zone Air Exhaust Port List
  {07c1af64-2aa0-4c35-8a8e-94cdc2bb682f}, !- Zone Air Node Name
  {690a89c2-70c6-43d1-a7ce-7f7de736df67}, !- Zone Return Air Port List
  ,                                       !- Primary Daylighting Control Name
  ,                                       !- Fraction of Zone Controlled by Primary Daylighting Control
  ,                                       !- Secondary Daylighting Control Name
  ,                                       !- Fraction of Zone Controlled by Secondary Daylighting Control
  ,                                       !- Illuminance Map Name
  ,                                       !- Group Rendering Name
  {60e407b5-1901-4bde-8090-dbf5e66d5d67}, !- Thermostat Name
  No;                                     !- Use Ideal Air Loads

OS:Node,
  {2eafbdf0-543d-4cae-b179-c11fb4d85897}, !- Handle
  storey-1-zone-4 Zone Air Node,          !- Name
  {07c1af64-2aa0-4c35-8a8e-94cdc2bb682f}, !- Inlet Port
  ;                                       !- Outlet Port

OS:Connection,
  {07c1af64-2aa0-4c35-8a8e-94cdc2bb682f}, !- Handle
  {96526c4a-e44a-4316-8f37-cd991f657ba1}, !- Name
  {a78eaf18-e478-4911-a798-63cc7c9ba06f}, !- Source Object
  11,                                     !- Outlet Port
  {2eafbdf0-543d-4cae-b179-c11fb4d85897}, !- Target Object
  2;                                      !- Inlet Port

OS:PortList,
  {d6e566d8-64c6-4de1-b9c0-03ec85b3b1c7}, !- Handle
  {3fcac9e6-1355-4026-a7b1-da698ed1e8e1}, !- Name
  {a78eaf18-e478-4911-a798-63cc7c9ba06f}, !- HVAC Component
  {f54a1ebd-539b-4d66-8218-7334eb916253}; !- Port 1

OS:PortList,
  {0d5266e1-608c-4a1f-af9f-88817db8ca71}, !- Handle
  {c96f1a9f-6f06-4e69-a58c-bd4abfd99112}, !- Name
  {a78eaf18-e478-4911-a798-63cc7c9ba06f}; !- HVAC Component

OS:PortList,
  {690a89c2-70c6-43d1-a7ce-7f7de736df67}, !- Handle
  {9babace3-1442-45d6-9c1e-d542b60994e4}, !- Name
  {a78eaf18-e478-4911-a798-63cc7c9ba06f}, !- HVAC Component
  {2e9bd42b-c614-4e54-8c61-1f7697f45a6d}; !- Port 1

OS:Sizing:Zone,
  {fbd6a0ef-0880-4e7a-92bb-866710701df3}, !- Handle
  {a78eaf18-e478-4911-a798-63cc7c9ba06f}, !- Zone or ZoneList Name
  SupplyAirTemperature,                   !- Zone Cooling Design Supply Air Temperature Input Method
  12.7777777777778,                       !- Zone Cooling Design Supply Air Temperature {C}
  11.11,                                  !- Zone Cooling Design Supply Air Temperature Difference {deltaC}
  SupplyAirTemperature,                   !- Zone Heating Design Supply Air Temperature Input Method
  50.0000000000001,                       !- Zone Heating Design Supply Air Temperature {C}
  11.11,                                  !- Zone Heating Design Supply Air Temperature Difference {deltaC}
  0.0085,                                 !- Zone Cooling Design Supply Air Humidity Ratio {kg-H2O/kg-air}
  0.008,                                  !- Zone Heating Design Supply Air Humidity Ratio {kg-H2O/kg-air}
  ,                                       !- Zone Heating Sizing Factor
  ,                                       !- Zone Cooling Sizing Factor
  DesignDay,                              !- Cooling Design Air Flow Method
  ,                                       !- Cooling Design Air Flow Rate {m3/s}
  ,                                       !- Cooling Minimum Air Flow per Zone Floor Area {m3/s-m2}
  ,                                       !- Cooling Minimum Air Flow {m3/s}
  ,                                       !- Cooling Minimum Air Flow Fraction
  DesignDay,                              !- Heating Design Air Flow Method
  ,                                       !- Heating Design Air Flow Rate {m3/s}
  ,                                       !- Heating Maximum Air Flow per Zone Floor Area {m3/s-m2}
  ,                                       !- Heating Maximum Air Flow {m3/s}
  ,                                       !- Heating Maximum Air Flow Fraction
  No,                                     !- Account for Dedicated Outdoor Air System
  NeutralSupplyAir,                       !- Dedicated Outdoor Air System Control Strategy
  autosize,                               !- Dedicated Outdoor Air Low Setpoint Temperature for Design {C}
  autosize;                               !- Dedicated Outdoor Air High Setpoint Temperature for Design {C}

OS:ZoneHVAC:EquipmentList,
  {e8803908-917a-4829-bfa4-4f5c125595e6}, !- Handle
  storey-1-zone-4 Zone HVAC Equipment List, !- Name
  {a78eaf18-e478-4911-a798-63cc7c9ba06f}, !- Thermal Zone
  ,                                       !- Load Distribution Scheme
  {f5c23847-2175-40b8-83e2-dd82885558f2}, !- Zone Equipment 1
  1,                                      !- Zone Equipment Cooling Sequence 1
  1,                                      !- Zone Equipment Heating or No-Load Sequence 1
  ,                                       !- Zone Equipment Sequential Cooling Fraction Schedule Name 1
  ;                                       !- Zone Equipment Sequential Heating Fraction Schedule Name 1

OS:AdditionalProperties,
  {f347c72d-d774-47cf-9469-2d1148346a1f}, !- Handle
  {a78eaf18-e478-4911-a798-63cc7c9ba06f}, !- Object Name
  gbXMLId,                                !- Feature Name 1
  String,                                 !- Feature Data Type 1
  zone-4;                                 !- Feature Value 1

OS:ThermalZone,
  {23853648-5de5-4683-be39-610e5e730662}, !- Handle
  storey-1-zone-5,                        !- Name
  ,                                       !- Multiplier
  ,                                       !- Ceiling Height {m}
  ,                                       !- Volume {m3}
  ,                                       !- Floor Area {m2}
  ,                                       !- Zone Inside Convection Algorithm
  ,                                       !- Zone Outside Convection Algorithm
  ,                                       !- Zone Conditioning Equipment List Name
  {a62cf5ef-bd12-4082-8503-199e648b5675}, !- Zone Air Inlet Port List
  {70b7c4b9-badd-4404-bb55-d7fe6cd78c99}, !- Zone Air Exhaust Port List
  {f6fcc453-41b5-48b7-98b4-7cb2771743ae}, !- Zone Air Node Name
  {2148bbd8-8719-48a9-8e9c-4af4a11633ad}, !- Zone Return Air Port List
  ,                                       !- Primary Daylighting Control Name
  ,                                       !- Fraction of Zone Controlled by Primary Daylighting Control
  ,                                       !- Secondary Daylighting Control Name
  ,                                       !- Fraction of Zone Controlled by Secondary Daylighting Control
  ,                                       !- Illuminance Map Name
  ,                                       !- Group Rendering Name
  {6543f251-24d6-443a-ba82-45053009eda9}, !- Thermostat Name
  No;                                     !- Use Ideal Air Loads

OS:Node,
  {ab442ee0-08a7-43d5-9bc9-680a977c821f}, !- Handle
  storey-1-zone-5 Zone Air Node,          !- Name
  {f6fcc453-41b5-48b7-98b4-7cb2771743ae}, !- Inlet Port
  ;                                       !- Outlet Port

OS:Connection,
  {f6fcc453-41b5-48b7-98b4-7cb2771743ae}, !- Handle
  {0624e3a6-aa80-4a7d-a24c-de13432d98a5}, !- Name
  {23853648-5de5-4683-be39-610e5e730662}, !- Source Object
  11,                                     !- Outlet Port
  {ab442ee0-08a7-43d5-9bc9-680a977c821f}, !- Target Object
  2;                                      !- Inlet Port

OS:PortList,
  {a62cf5ef-bd12-4082-8503-199e648b5675}, !- Handle
  {4a3f2234-2b1a-463a-8e4f-334a06e9d752}, !- Name
  {23853648-5de5-4683-be39-610e5e730662}, !- HVAC Component
  {d01a0565-3e48-4955-b174-4e480ac5b76d}; !- Port 1

OS:PortList,
  {70b7c4b9-badd-4404-bb55-d7fe6cd78c99}, !- Handle
  {049d7f52-943e-4fe7-bec3-2d7d708ff380}, !- Name
  {23853648-5de5-4683-be39-610e5e730662}; !- HVAC Component

OS:PortList,
  {2148bbd8-8719-48a9-8e9c-4af4a11633ad}, !- Handle
  {45fb517e-3cb7-4576-97f4-561824f0f4ef}, !- Name
  {23853648-5de5-4683-be39-610e5e730662}, !- HVAC Component
  {004f047f-a3c3-4bbd-8209-cb51275a49e3}; !- Port 1

OS:Sizing:Zone,
  {85f444ce-28ce-49b3-86fd-4ea42b950783}, !- Handle
  {23853648-5de5-4683-be39-610e5e730662}, !- Zone or ZoneList Name
  SupplyAirTemperature,                   !- Zone Cooling Design Supply Air Temperature Input Method
  12.7777777777778,                       !- Zone Cooling Design Supply Air Temperature {C}
  11.11,                                  !- Zone Cooling Design Supply Air Temperature Difference {deltaC}
  SupplyAirTemperature,                   !- Zone Heating Design Supply Air Temperature Input Method
  50.0000000000001,                       !- Zone Heating Design Supply Air Temperature {C}
  11.11,                                  !- Zone Heating Design Supply Air Temperature Difference {deltaC}
  0.0085,                                 !- Zone Cooling Design Supply Air Humidity Ratio {kg-H2O/kg-air}
  0.008,                                  !- Zone Heating Design Supply Air Humidity Ratio {kg-H2O/kg-air}
  ,                                       !- Zone Heating Sizing Factor
  ,                                       !- Zone Cooling Sizing Factor
  DesignDay,                              !- Cooling Design Air Flow Method
  ,                                       !- Cooling Design Air Flow Rate {m3/s}
  ,                                       !- Cooling Minimum Air Flow per Zone Floor Area {m3/s-m2}
  ,                                       !- Cooling Minimum Air Flow {m3/s}
  ,                                       !- Cooling Minimum Air Flow Fraction
  DesignDay,                              !- Heating Design Air Flow Method
  ,                                       !- Heating Design Air Flow Rate {m3/s}
  ,                                       !- Heating Maximum Air Flow per Zone Floor Area {m3/s-m2}
  ,                                       !- Heating Maximum Air Flow {m3/s}
  ,                                       !- Heating Maximum Air Flow Fraction
  No,                                     !- Account for Dedicated Outdoor Air System
  NeutralSupplyAir,                       !- Dedicated Outdoor Air System Control Strategy
  autosize,                               !- Dedicated Outdoor Air Low Setpoint Temperature for Design {C}
  autosize;                               !- Dedicated Outdoor Air High Setpoint Temperature for Design {C}

OS:ZoneHVAC:EquipmentList,
  {108944c9-af4f-4527-82f9-6c95c2a95ba2}, !- Handle
  storey-1-zone-5 Zone HVAC Equipment List, !- Name
  {23853648-5de5-4683-be39-610e5e730662}, !- Thermal Zone
  ,                                       !- Load Distribution Scheme
  {aa18e1e0-2139-4961-9c58-765d7b353cbd}, !- Zone Equipment 1
  1,                                      !- Zone Equipment Cooling Sequence 1
  1,                                      !- Zone Equipment Heating or No-Load Sequence 1
  ,                                       !- Zone Equipment Sequential Cooling Fraction Schedule Name 1