
OS:Version,
  {2a014717-ca85-4deb-997f-d738baf36768}, !- Handle
  2.9.1;                                  !- Version Identifier

OS:ThermalZone,
  {1243ee66-6ab0-4d0d-9d6e-92d7f96173dd}, !- Handle
  Default,                                !- Name
  ,                                       !- Multiplier
  ,                                       !- Ceiling Height {m}
  ,                                       !- Volume {m3}
  ,                                       !- Floor Area {m2}
  ,                                       !- Zone Inside Convection Algorithm
  ,                                       !- Zone Outside Convection Algorithm
  ,                                       !- Zone Conditioning Equipment List Name
  {a4763a4d-eb6a-4e9e-9bc5-821d43a0c827}, !- Zone Air Inlet Port List
  {4360b5ff-56eb-4b47-9969-85b58d43218c}, !- Zone Air Exhaust Port List
  {dc8b41ad-1999-4c1a-841d-517a2290edc9}, !- Zone Air Node Name
  {f87a49bb-722e-4fa5-bbed-b9928814c448}, !- Zone Return Air Port List
  ,                                       !- Primary Daylighting Control Name
  ,                                       !- Fraction of Zone Controlled by Primary Daylighting Control
  ,                                       !- Secondary Daylighting Control Name
  ,                                       !- Fraction of Zone Controlled by Secondary Daylighting Control
  ,                                       !- Illuminance Map Name
  {bb98368a-6ac5-4c14-be7f-2d4884c88a98}, !- Group Rendering Name
  ,                                       !- Thermostat Name
  No;                                     !- Use Ideal Air Loads

OS:Node,
  {15dd8533-f6e6-4c9d-8a1e-a708ce1fbc39}, !- Handle
  {f1675c4e-800f-4825-a62e-d5dbd2db2e76}, !- Name
  {dc8b41ad-1999-4c1a-841d-517a2290edc9}, !- Inlet Port
  ;                                       !- Outlet Port

OS:Connection,
  {dc8b41ad-1999-4c1a-841d-517a2290edc9}, !- Handle
  {4f6241e0-2ba9-4d12-b154-88fdcc86962b}, !- Name
  {1243ee66-6ab0-4d0d-9d6e-92d7f96173dd}, !- Source Object
  11,                                     !- Outlet Port
  {15dd8533-f6e6-4c9d-8a1e-a708ce1fbc39}, !- Target Object
  2;                                      !- Inlet Port

OS:PortList,
  {a4763a4d-eb6a-4e9e-9bc5-821d43a0c827}, !- Handle
  {d66bf631-b439-4841-b78a-36724eff496e}, !- Name
  {1243ee66-6ab0-4d0d-9d6e-92d7f96173dd}; !- HVAC Component

OS:PortList,
  {4360b5ff-56eb-4b47-9969-85b58d43218c}, !- Handle
  {8743f630-70a0-4fe4-a508-acac903a8d23}, !- Name
  {1243ee66-6ab0-4d0d-9d6e-92d7f96173dd}; !- HVAC Component

OS:PortList,
  {f87a49bb-722e-4fa5-bbed-b9928814c448}, !- Handle
  {a5bb77ea-593e-4786-a7b8-df3c5fea2d05}, !- Name
  {1243ee66-6ab0-4d0d-9d6e-92d7f96173dd}; !- HVAC Component

OS:Sizing:Zone,
  {bd27a3ff-bdff-483d-a5a0-3931f0eb74e4}, !- Handle
  {1243ee66-6ab0-4d0d-9d6e-92d7f96173dd}, !- Zone or ZoneList Name
  SupplyAirTemperature,                   !- Zone Cooling Design Supply Air Temperature Input Method
  14,                                     !- Zone Cooling Design Supply Air Temperature {C}
  11.11,                                  !- Zone Cooling Design Supply Air Temperature Difference {deltaC}
  SupplyAirTemperature,                   !- Zone Heating Design Supply Air Temperature Input Method
  40,                                     !- Zone Heating Design Supply Air Temperature {C}
  11.11,                                  !- Zone Heating Design Supply Air Temperature Difference {deltaC}
  0.0085,                                 !- Zone Cooling Design Supply Air Humidity Ratio {kg-H2O/kg-air}
  0.008,                                  !- Zone Heating Design Supply Air Humidity Ratio {kg-H2O/kg-air}
  ,                                       !- Zone Heating Sizing Factor
  ,                                       !- Zone Cooling Sizing Factor
  DesignDay,                              !- Cooling Design Air Flow Method
  ,                                       !- Cooling Design Air Flow Rate {m3/s}
  ,                                       !- Cooling Minimum Air Flow per Zone Floor Area {m3/s-m2}
  ,                                       !- Cooling Minimum Air Flow {m3/s}
  ,                                       !- Cooling Minimum Air Flow Fraction
  DesignDay,                              !- Heating Design Air Flow Method
  ,                                       !- Heating Design Air Flow Rate {m3/s}
  ,                                       !- Heating Maximum Air Flow per Zone Floor Area {m3/s-m2}
  ,                                       !- Heating Maximum Air Flow {m3/s}
  ,                                       !- Heating Maximum Air Flow Fraction
  ,                                       !- Design Zone Air Distribution Effectiveness in Cooling Mode
  ,                                       !- Design Zone Air Distribution Effectiveness in Heating Mode
  No,                                     !- Account for Dedicated Outdoor Air System
  NeutralSupplyAir,                       !- Dedicated Outdoor Air System Control Strategy
  autosize,                               !- Dedicated Outdoor Air Low Setpoint Temperature for Design {C}
  autosize;                               !- Dedicated Outdoor Air High Setpoint Temperature for Design {C}

OS:ZoneHVAC:EquipmentList,
  {4c2c0e2d-71fe-4f83-b000-571eaad8349d}, !- Handle
  {7262f267-ef62-486f-8aa6-1f29a3744ac8}, !- Name
  {1243ee66-6ab0-4d0d-9d6e-92d7f96173dd}; !- Thermal Zone

OS:AdditionalProperties,
  {6d07b2c5-8618-466f-a77a-805677012bec}, !- Handle
  {1243ee66-6ab0-4d0d-9d6e-92d7f96173dd}, !- Object Name
  gbXMLId,                                !- Feature Name 1
  String,                                 !- Feature Data Type 1
  aim0042,                                !- Feature Value 1
  CADObjectId,                            !- Feature Name 2
  String,                                 !- Feature Data Type 2
  293242;                                 !- Feature Value 2

OS:Facility,
  {e33e38c8-b8f4-4cfe-812d-8e26a75eff5c}; !- Handle

OS:Building,
  {69b23d67-d2d6-42ce-ad5e-ecc39ac802be}, !- Handle
  bldg-1,                                 !- Name
  ,                                       !- Building Sector Type
  ,                                       !- North Axis {deg}
  ,                                       !- Nominal Floor to Floor Height {m}
  ,                                       !- Space Type Name
  ,                                       !- Default Construction Set Name
  ;                                       !- Default Schedule Set Name

OS:AdditionalProperties,
  {d687d34e-b6f7-4e2d-81a4-9962e527195b}, !- Handle
  {69b23d67-d2d6-42ce-ad5e-ecc39ac802be}, !- Object Name
  gbXMLId,                                !- Feature Name 1
  String,                                 !- Feature Data Type 1
  aim0013;                                !- Feature Value 1

OS:BuildingStory,
  {7800a768-59ce-4787-be18-d48ecf7b8274}, !- Handle
  Level 00,                               !- Name
  ,                                       !- Nominal Z Coordinate {m}
  ,                                       !- Nominal Floor to Floor Height {m}
  ,                                       !- Default Construction Set Name
  ,                                       !- Default Schedule Set Name
  {d12be4f0-2d82-4986-ae50-2cd60caa340d}; !- Group Rendering Name

OS:AdditionalProperties,
  {8a91842e-be7a-4d13-b7f0-6c5f836b9dcd}, !- Handle
  {7800a768-59ce-4787-be18-d48ecf7b8274}, !- Object Name
  gbXMLId,                                !- Feature Name 1
  String,                                 !- Feature Data Type 1
  aim0015;                                !- Feature Value 1

OS:BuildingStory,
  {0def341e-da7d-46c2-bb70-2a4a4a7b183d}, !- Handle
  Level 01,                               !- Name
  ,                                       !- Nominal Z Coordinate {m}
  ,                                       !- Nominal Floor to Floor Height {m}
  ,                                       !- Default Construction Set Name
  ,                                       !- Default Schedule Set Name
  {0178b815-57d7-47a6-9a46-0680f57eef4d}; !- Group Rendering Name

OS:AdditionalProperties,
  {87d8564a-dbb0-4ac4-bab5-d38ea32b009a}, !- Handle
  {0def341e-da7d-46c2-bb70-2a4a4a7b183d}, !- Object Name
  gbXMLId,                                !- Feature Name 1
  String,                                 !- Feature Data Type 1
  aim0024;                                !- Feature Value 1

OS:BuildingStory,
  {fe3275d6-4155-463c-b7d5-f21dd3c356ee}, !- Handle
  Level 02,                               !- Name
  ,                                       !- Nominal Z Coordinate {m}
  ,                                       !- Nominal Floor to Floor Height {m}
  ,                                       !- Default Construction Set Name
  ,                                       !- Default Schedule Set Name
  {58db4ff2-322e-4309-9401-df4ac1e2ce9d}; !- Group Rendering Name

OS:AdditionalProperties,
  {eeb41d6d-0dba-4185-a7c3-6d4082e10026}, !- Handle
  {fe3275d6-4155-463c-b7d5-f21dd3c356ee}, !- Object Name
  gbXMLId,                                !- Feature Name 1
  String,                                 !- Feature Data Type 1
  aim0033;                                !- Feature Value 1

OS:Space,
  {1f53345a-a658-4169-ad72-1134bc9182ef}, !- Handle
  00_913 Space,                           !- Name
  ,                                       !- Space Type Name
  ,                                       !- Default Construction Set Name
  ,                                       !- Default Schedule Set Name
  ,                                       !- Direction of Relative North {deg}
  ,                                       !- X Origin {m}
  ,                                       !- Y Origin {m}
  ,                                       !- Z Origin {m}
  {0def341e-da7d-46c2-bb70-2a4a4a7b183d}, !- Building Story Name
  {1243ee66-6ab0-4d0d-9d6e-92d7f96173dd}; !- Thermal Zone Name

OS:AdditionalProperties,
  {791ac56b-700c-46b9-ba2e-cfad3b024e2b}, !- Handle
  {1f53345a-a658-4169-ad72-1134bc9182ef}, !- Object Name
  gbXMLId,                                !- Feature Name 1
  String,                                 !- Feature Data Type 1
  aim0048,                                !- Feature Value 1
  CADObjectId,                            !- Feature Name 2
  String,                                 !- Feature Data Type 2
  1211122;                                !- Feature Value 2

OS:Space,
  {ba776e71-2b92-42d1-a86c-402017fb662b}, !- Handle
  00_914 Space,                           !- Name
  ,                                       !- Space Type Name
  ,                                       !- Default Construction Set Name
  ,                                       !- Default Schedule Set Name
  ,                                       !- Direction of Relative North {deg}
  ,                                       !- X Origin {m}
  ,                                       !- Y Origin {m}
  ,                                       !- Z Origin {m}
  {0def341e-da7d-46c2-bb70-2a4a4a7b183d}, !- Building Story Name
  {1243ee66-6ab0-4d0d-9d6e-92d7f96173dd}; !- Thermal Zone Name

OS:AdditionalProperties,
  {7ba9caab-9524-4281-97a5-8574eedafec8}, !- Handle
  {ba776e71-2b92-42d1-a86c-402017fb662b}, !- Object Name
  gbXMLId,                                !- Feature Name 1
  String,                                 !- Feature Data Type 1
  aim0091,                                !- Feature Value 1
  CADObjectId,                            !- Feature Name 2
  String,                                 !- Feature Data Type 2
  1211124;                                !- Feature Value 2

OS:Space,
  {1b936551-2832-4323-9c41-03f8f4cac492}, !- Handle
  00_915 Space,                           !- Name
  ,                                       !- Space Type Name
  ,                                       !- Default Construction Set Name
  ,                                       !- Default Schedule Set Name
  ,                                       !- Direction of Relative North {deg}
  ,                                       !- X Origin {m}
  ,                                       !- Y Origin {m}
  ,                                       !- Z Origin {m}
  {7800a768-59ce-4787-be18-d48ecf7b8274}, !- Building Story Name
  {1243ee66-6ab0-4d0d-9d6e-92d7f96173dd}; !- Thermal Zone Name

OS:AdditionalProperties,
  {226425c2-af80-4b02-b4a2-6c33a20cd9d4}, !- Handle
  {1b936551-2832-4323-9c41-03f8f4cac492}, !- Object Name
  gbXMLId,                                !- Feature Name 1
  String,                                 !- Feature Data Type 1
  aim0134,                                !- Feature Value 1
  CADObjectId,                            !- Feature Name 2
  String,                                 !- Feature Data Type 2
  1215302;                                !- Feature Value 2

OS:Space,
  {b28a8e15-7eb3-4d10-8f92-bee1a3cb7015}, !- Handle
  00_916 Space,                           !- Name
  ,                                       !- Space Type Name
  ,                                       !- Default Construction Set Name
  ,                                       !- Default Schedule Set Name
  ,                                       !- Direction of Relative North {deg}
  ,                                       !- X Origin {m}
  ,                                       !- Y Origin {m}
  ,                                       !- Z Origin {m}
  {7800a768-59ce-4787-be18-d48ecf7b8274}, !- Building Story Name
  {1243ee66-6ab0-4d0d-9d6e-92d7f96173dd}; !- Thermal Zone Name

OS:AdditionalProperties,
  {2a435bdd-60a1-4d2e-97fe-8e9fac945c40}, !- Handle
  {b28a8e15-7eb3-4d10-8f92-bee1a3cb7015}, !- Object Name
  gbXMLId,                                !- Feature Name 1
  String,                                 !- Feature Data Type 1
  aim0177,                                !- Feature Value 1
  CADObjectId,                            !- Feature Name 2
  String,                                 !- Feature Data Type 2
  1215721;                                !- Feature Value 2

OS:Space,
  {844161cf-5102-454a-9c1c-a767503c2bb2}, !- Handle
  00_917 Space,                           !- Name
  ,                                       !- Space Type Name
  ,                                       !- Default Construction Set Name
  ,                                       !- Default Schedule Set Name
  ,                                       !- Direction of Relative North {deg}
  ,                                       !- X Origin {m}
  ,                                       !- Y Origin {m}
  ,                                       !- Z Origin {m}
  {fe3275d6-4155-463c-b7d5-f21dd3c356ee}, !- Building Story Name
  {1243ee66-6ab0-4d0d-9d6e-92d7f96173dd}; !- Thermal Zone Name

OS:AdditionalProperties,
  {eb5d345f-8da1-4f30-ac1e-c34e070ee6dc}, !- Handle
  {844161cf-5102-454a-9c1c-a767503c2bb2}, !- Object Name
  gbXMLId,                                !- Feature Name 1
  String,                                 !- Feature Data Type 1
  aim0220,                                !- Feature Value 1
  CADObjectId,                            !- Feature Name 2
  String,                                 !- Feature Data Type 2
  1216624;                                !- Feature Value 2

OS:Surface,
  {74f97e4a-1bf7-425a-bfa6-f45f8c1c4e7b}, !- Handle
  W-00_913-E-W-1,                         !- Name
  Wall,                                   !- Surface Type
  ,                                       !- Construction Name
  {1f53345a-a658-4169-ad72-1134bc9182ef}, !- Space Name
  Outdoors,                               !- Outside Boundary Condition
  ,                                       !- Outside Boundary Condition Object
  SunExposed,                             !- Sun Exposure
  WindExposed,                            !- Wind Exposure
  ,                                       !- View Factor to Ground
  ,                                       !- Number of Vertices
  -6.742033, 0, 4.5,                      !- X,Y,Z Vertex 1 {m}
  -6.742033, 0, 9,                        !- X,Y,Z Vertex 2 {m}
  -6.742033, 4.325, 9,                    !- X,Y,Z Vertex 3 {m}
  -6.742033, 4.325, 4.5;                  !- X,Y,Z Vertex 4 {m}

OS:AdditionalProperties,
  {3810428b-bfd9-4322-94d9-9309513780f2}, !- Handle
  {74f97e4a-1bf7-425a-bfa6-f45f8c1c4e7b}, !- Object Name
  gbXMLId,                                !- Feature Name 1
  String,                                 !- Feature Data Type 1
  aim0263,                                !- Feature Value 1
  CADObjectId,                            !- Feature Name 2
  String,                                 !- Feature Data Type 2
  Basic Wall: SIM_EXT_SLD [1215929],      !- Feature Value 2
  gbXMLReversed,                          !- Feature Name 3
  Boolean,                                !- Feature Data Type 3
  false;                                  !- Feature Value 3

OS:Surface,
  {7756b122-94db-48a1-893a-d17012e76bb2}, !- Handle
  S-00_913-E-W-2,                         !- Name
  Wall,                                   !- Surface Type
  ,                                       !- Construction Name
  {1f53345a-a658-4169-ad72-1134bc9182ef}, !- Space Name
  Outdoors,                               !- Outside Boundary Condition
  ,                                       !- Outside Boundary Condition Object
  SunExposed,                             !- Sun Exposure
  WindExposed,                            !- Wind Exposure
  ,                                       !- View Factor to Ground
  ,                                       !- Number of Vertices
  -6.742033, 0, 4.5,                      !- X,Y,Z Vertex 1 {m}
  10, 0, 4.5,                             !- X,Y,Z Vertex 2 {m}
  10, 0, 9,                               !- X,Y,Z Vertex 3 {m}
  -6.742033, 0, 9;                        !- X,Y,Z Vertex 4 {m}

OS:AdditionalProperties,
  {1559b63c-dbdb-4651-9a1c-0eb153773e09}, !- Handle
  {7756b122-94db-48a1-893a-d17012e76bb2}, !- Object Name
  gbXMLId,                                !- Feature Name 1
  String,                                 !- Feature Data Type 1
  aim0274,                                !- Feature Value 1
  CADObjectId,                            !- Feature Name 2
  String,                                 !- Feature Data Type 2
  Doors_ver01: SIM_EXT_SLD [1215933],     !- Feature Value 2
  gbXMLReversed,                          !- Feature Name 3
  Boolean,                                !- Feature Data Type 3
  false;                                  !- Feature Value 3

OS:SubSurface,
  {0f11605b-f451-4d04-87ee-8cb5c41c8b8e}, !- Handle
  S-00_913-E-W-2-D-1,                     !- Name
  Door,                                   !- Sub Surface Type
  ,                                       !- Construction Name
  {7756b122-94db-48a1-893a-d17012e76bb2}, !- Surface Name
  ,                                       !- Outside Boundary Condition Object
  ,                                       !- View Factor to Ground
  ,                                       !- Shading Control Name
  ,                                       !- Frame and Divider Name
  ,                                       !- Multiplier
  ,                                       !- Number of Vertices
  6.225, 0, 4.5,                          !- X,Y,Z Vertex 1 {m}
  7.151, 0, 4.5,                          !- X,Y,Z Vertex 2 {m}
  7.151, 0, 6.54,                         !- X,Y,Z Vertex 3 {m}
  6.225, 0, 6.54;                         !- X,Y,Z Vertex 4 {m}

OS:AdditionalProperties,
  {7ec4afe9-0814-4c50-b18d-e8616ce3fb5b}, !- Handle
  {0f11605b-f451-4d04-87ee-8cb5c41c8b8e}, !- Object Name
  gbXMLId,                                !- Feature Name 1
  String,                                 !- Feature Data Type 1
  aim0285,                                !- Feature Value 1
  CADObjectId,                            !- Feature Name 2
  String,                                 !- Feature Data Type 2
  Doors_ver01: SIM_EXT_SLD [1215933],     !- Feature Value 2
  gbXMLReversed,                          !- Feature Name 3
  Boolean,                                !- Feature Data Type 3
  false;                                  !- Feature Value 3

OS:SubSurface,
  {ae668341-e9bb-49bc-8599-b4c8d55256e6}, !- Handle
  S-00_913-E-W-2-W-2,                     !- Name
  OperableWindow,                         !- Sub Surface Type
  ,                                       !- Construction Name
  {7756b122-94db-48a1-893a-d17012e76bb2}, !- Surface Name
  ,                                       !- Outside Boundary Condition Object
  ,                                       !- View Factor to Ground
  ,                                       !- Shading Control Name
  ,                                       !- Frame and Divider Name
  ,                                       !- Multiplier
  ,                                       !- Number of Vertices
  1.325, 0, 6.397861,                     !- X,Y,Z Vertex 1 {m}
  4.325, 0, 6.397861,                     !- X,Y,Z Vertex 2 {m}
  4.325, 0, 7.897861,                     !- X,Y,Z Vertex 3 {m}
  1.325, 0, 7.897861;                     !- X,Y,Z Vertex 4 {m}

OS:AdditionalProperties,
  {53b98a19-4d6f-42a8-a8f9-d53e30d975cb}, !- Handle
  {ae668341-e9bb-49bc-8599-b4c8d55256e6}, !- Object Name
  gbXMLId,                                !- Feature Name 1
  String,                                 !- Feature Data Type 1
  aim0295,                                !- Feature Value 1
  CADObjectId,                            !- Feature Name 2
  String,                                 !- Feature Data Type 2
  WinInst: SIM_EXT_GLZ [1215932],         !- Feature Value 2
  gbXMLReversed,                          !- Feature Name 3
  Boolean,                                !- Feature Data Type 3
  false;                                  !- Feature Value 3

OS:Surface,
  {066674ac-5ed9-489f-bd87-f55f731fd24a}, !- Handle
  E-00_913-E-W-3,                         !- Name
  Wall,                                   !- Surface Type
  ,                                       !- Construction Name
  {1f53345a-a658-4169-ad72-1134bc9182ef}, !- Space Name
  Outdoors,                               !- Outside Boundary Condition
  ,                                       !- Outside Boundary Condition Object
  SunExposed,                             !- Sun Exposure
  WindExposed,                            !- Wind Exposure
  ,                                       !- View Factor to Ground
  ,                                       !- Number of Vertices
  10, 0, 4.5,                             !- X,Y,Z Vertex 1 {m}
  10, 4.325, 4.5,                         !- X,Y,Z Vertex 2 {m}
  10, 4.325, 9,                           !- X,Y,Z Vertex 3 {m}
  10, 0, 9;                               !- X,Y,Z Vertex 4 {m}

OS:AdditionalProperties,
  {18d1a205-a819-4d55-9b91-a12a914d0d3f}, !- Handle
  {066674ac-5ed9-489f-bd87-f55f731fd24a}, !- Object Name
  gbXMLId,                                !- Feature Name 1
  String,                                 !- Feature Data Type 1
  aim0305,                                !- Feature Value 1
  CADObjectId,                            !- Feature Name 2
  String,                                 !- Feature Data Type 2
  Basic Wall: SIM_EXT_SLD [1215931],      !- Feature Value 2
  gbXMLReversed,                          !- Feature Name 3
  Boolean,                                !- Feature Data Type 3
  false;                                  !- Feature Value 3

OS:Surface,
  {c831cbbc-4db9-42e7-bcd0-15356d133279}, !- Handle
  B-00_913-E-F-4,                         !- Name
  Floor,                                  !- Surface Type
  ,                                       !- Construction Name
  {1f53345a-a658-4169-ad72-1134bc9182ef}, !- Space Name
  Outdoors,                               !- Outside Boundary Condition
  ,                                       !- Outside Boundary Condition Object
  SunExposed,                             !- Sun Exposure
  WindExposed,                            !- Wind Exposure
  ,                                       !- View Factor to Ground
  ,                                       !- Number of Vertices
  -6.742033, 0, 4.5,                      !- X,Y,Z Vertex 1 {m}
  -6.742033, 4.3225, 4.5,                 !- X,Y,Z Vertex 2 {m}
  -2.955, 4.3225, 4.5,                    !- X,Y,Z Vertex 3 {m}
  -2.955, 0.0025, 4.5,                    !- X,Y,Z Vertex 4 {m}
  0, 0.0025, 4.5;                         !- X,Y,Z Vertex 5 {m}

OS:AdditionalProperties,
  {8cb3bfea-668b-4f58-9a30-f43fec8d55cf}, !- Handle
  {c831cbbc-4db9-42e7-bcd0-15356d133279}, !- Object Name
  gbXMLId,                                !- Feature Name 1
  String,                                 !- Feature Data Type 1
  aim0316,                                !- Feature Value 1
  CADObjectId,                            !- Feature Name 2
  String,                                 !- Feature Data Type 2
  Floor: SIM_EXT_SLD_FLR Exposed [1221492], !- Feature Value 2
  gbXMLReversed,                          !- Feature Name 3
  Boolean,                                !- Feature Data Type 3
  false;                                  !- Feature Value 3

OS:Surface,
  {af79275b-0561-4d49-8f76-abe96d07717b}, !- Handle
  B-00_913-E-F-5,                         !- Name
  Floor,                                  !- Surface Type
  ,                                       !- Construction Name
  {1f53345a-a658-4169-ad72-1134bc9182ef}, !- Space Name
  Outdoors,                               !- Outside Boundary Condition
  ,                                       !- Outside Boundary Condition Object
  SunExposed,                             !- Sun Exposure
  WindExposed,                            !- Wind Exposure
  ,                                       !- View Factor to Ground
  ,                                       !- Number of Vertices
  -2.955, 0.0025, 4.5,                    !- X,Y,Z Vertex 1 {m}
  -2.955, 4.3225, 4.5,                    !- X,Y,Z Vertex 2 {m}
  0, 4.3225, 4.5,                         !- X,Y,Z Vertex 3 {m}
  0, 0.0025, 4.5;                         !- X,Y,Z Vertex 4 {m}

OS:AdditionalProperties,
  {bfa05ae1-e74f-44fd-8650-1f605c82f9fa}, !- Handle
  {af79275b-0561-4d49-8f76-abe96d07717b}, !- Object Name
  gbXMLId,                                !- Feature Name 1
  String,                                 !- Feature Data Type 1
  aim0328,                                !- Feature Value 1
  CADObjectId,                            !- Feature Name 2
  String,                                 !- Feature Data Type 2
  Floor: SIM_EXT_SLD_FLR Exposed [1221508], !- Feature Value 2
  gbXMLReversed,                          !- Feature Name 3
  Boolean,                                !- Feature Data Type 3
  false;                                  !- Feature Value 3

OS:Surface,
  {c223c193-5380-47d0-840d-de25a0db73f5}, !- Handle
  T-00_913-E-R-6,                         !- Name
  RoofCeiling,                            !- Surface Type
  ,                                       !- Construction Name
  {1f53345a-a658-4169-ad72-1134bc9182ef}, !- Space Name
  Outdoors,                               !- Outside Boundary Condition
  ,                                       !- Outside Boundary Condition Object
  SunExposed,                             !- Sun Exposure
  WindExposed,                            !- Wind Exposure
  ,                                       !- View Factor to Ground
  ,                                       !- Number of Vertices
  -6.742033, 0, 9,                        !- X,Y,Z Vertex 1 {m}
  -1.280486, 0, 9,                        !- X,Y,Z Vertex 2 {m}
  -2.712729, 0.7297643, 9,                !- X,Y,Z Vertex 3 {m}
  -6.301016, 2.5525, 9,                   !- X,Y,Z Vertex 4 {m}
  -4.765759, 4.3225, 9,                   !- X,Y,Z Vertex 5 {m}
  -6.741016, 4.3225, 9;                   !- X,Y,Z Vertex 6 {m}

OS:AdditionalProperties,
  {93d88da9-d740-474c-b7ed-e5d9a84c9962}, !- Handle
  {c223c193-5380-47d0-840d-de25a0db73f5}, !- Object Name
  gbXMLId,                                !- Feature Name 1
  String,                                 !- Feature Data Type 1
  aim0339,                                !- Feature Value 1
  CADObjectId,                            !- Feature Name 2
  String,                                 !- Feature Data Type 2
  Basic Roof: SIM_EXT_SLD_Roof DA01 [1221536], !- Feature Value 2
  gbXMLReversed,                          !- Feature Name 3
  Boolean,                                !- Feature Data Type 3
  false;                                  !- Feature Value 3

OS:Surface,
  {9f6897bb-5ac5-48ac-8770-0510de7d7c63}, !- Handle
  T-00_913-E-R-7,                         !- Name
  RoofCeiling,                            !- Surface Type
  ,                                       !- Construction Name
  {1f53345a-a658-4169-ad72-1134bc9182ef}, !- Space Name
  Outdoors,                               !- Outside Boundary Condition
  ,                                       !- Outside Boundary Condition Object
  SunExposed,                             !- Sun Exposure
  WindExposed,                            !- Wind Exposure
  ,                                       !- View Factor to Ground
  ,                                       !- Number of Vertices
  8.449318, 0.0025, 9,                    !- X,Y,Z Vertex 1 {m}
  9.998983, 0.0025, 9,                    !- X,Y,Z Vertex 2 {m}
  9.998983, 2.058975, 9;                  !- X,Y,Z Vertex 3 {m}

OS:AdditionalProperties,
  {32b40fb4-59a3-4a1a-990c-20c3fbd7ac58}, !- Handle
  {9f6897bb-5ac5-48ac-8770-0510de7d7c63}, !- Object Name
  gbXMLId,                                !- Feature Name 1
  String,                                 !- Feature Data Type 1
  aim0352,                                !- Feature Value 1
  CADObjectId,                            !- Feature Name 2
  String,                                 !- Feature Data Type 2