
OS:Version,
  {9816fe50-866b-4409-b296-0793e8429b14}, !- Handle
  2.9.1;                                  !- Version Identifier

OS:Building,
  {0485baa6-9c4b-448a-8ae3-f2f9341b2c90}, !- Handle
  Building 1,                             !- Name
  ,                                       !- Building Sector Type
  -0,                                     !- North Axis {deg}
  ,                                       !- Nominal Floor to Floor Height {m}
  ,                                       !- Space Type Name
  ,                                       !- Default Construction Set Name
  ,                                       !- Default Schedule Set Name
  ,                                       !- Standards Number of Stories
  ,                                       !- Standards Number of Above Ground Stories
  90.1-2007,                              !- Standards Template
  Office;                                 !- Standards Building Type

OS:Facility,
  {4ed35485-5cc8-4982-ae5d-8a6b8a98d3ad}; !- Handle

OS:Site,
  {ea8556ba-79b4-4ad9-828b-e4e5e64e9a79}, !- Handle
  San Francisco Treasure Island,          !- Name
  37.826,                                 !- Latitude {deg}
  -122.3699,                              !- Longitude {deg}
  -8,                                     !- Time Zone {hr}
  8,                                      !- Elevation {m}
  ;                                       !- Terrain

OS:Space,
  {4b90bb61-a099-49c4-a401-f7f1af61fcc2}, !- Handle
  Space 1-1,                              !- Name
  {1f69aba1-9a15-4ec6-abab-5cd49c7f7e37}, !- Space Type Name
  ,                                       !- Default Construction Set Name
  ,                                       !- Default Schedule Set Name
  ,                                       !- Direction of Relative North {deg}
  ,                                       !- X Origin {m}
  ,                                       !- Y Origin {m}
  ,                                       !- Z Origin {m}
  {00d9c9fc-ccb4-45f3-9e90-7de2cb2a5934}, !- Building Story Name
  {88802c9b-26eb-4c5e-8fe0-9a6ceca14c8c}; !- Thermal Zone Name

OS:Space,
  {3fc32e30-14ce-4b83-afea-f045826155c1}, !- Handle
  Space 1-10,                             !- Name
  {1f69aba1-9a15-4ec6-abab-5cd49c7f7e37}, !- Space Type Name
  ,                                       !- Default Construction Set Name
  ,                                       !- Default Schedule Set Name
  ,                                       !- Direction of Relative North {deg}
  ,                                       !- X Origin {m}
  ,                                       !- Y Origin {m}
  ,                                       !- Z Origin {m}
  {00d9c9fc-ccb4-45f3-9e90-7de2cb2a5934}, !- Building Story Name
  {4236bc4d-5d0f-4626-9757-e415bb3a42f4}; !- Thermal Zone Name

OS:Space,
  {68fd0635-c574-4a1e-aa18-4a51b1728541}, !- Handle
  Space 1-11,                             !- Name
  {41cbe41f-6aad-42d6-80e8-cc6da9c3a2be}, !- Space Type Name
  ,                                       !- Default Construction Set Name
  ,                                       !- Default Schedule Set Name
  ,                                       !- Direction of Relative North {deg}
  ,                                       !- X Origin {m}
  ,                                       !- Y Origin {m}
  ,                                       !- Z Origin {m}
  {00d9c9fc-ccb4-45f3-9e90-7de2cb2a5934}, !- Building Story Name
  {15e8de04-391d-47ab-ac44-f4189b426a6c}; !- Thermal Zone Name

OS:Space,
  {15d7c30e-aa4b-4721-92cd-05efd4d049f0}, !- Handle
  Space 1-12,                             !- Name
  {28350e9f-8131-43e0-bd38-a3ffa77d86b7}, !- Space Type Name
  ,                                       !- Default Construction Set Name
  ,                                       !- Default Schedule Set Name
  ,                                       !- Direction of Relative North {deg}
  ,                                       !- X Origin {m}
  ,                                       !- Y Origin {m}
  ,                                       !- Z Origin {m}
  {00d9c9fc-ccb4-45f3-9e90-7de2cb2a5934}, !- Building Story Name
  {8211b7c5-3bdd-4c08-a387-5ac04bbd45da}; !- Thermal Zone Name

OS:Space,
  {2f4f9b3b-9133-4235-b9b4-cae72341367a}, !- Handle
  Space 1-13,                             !- Name
  {28350e9f-8131-43e0-bd38-a3ffa77d86b7}, !- Space Type Name
  ,                                       !- Default Construction Set Name
  ,                                       !- Default Schedule Set Name
  ,                                       !- Direction of Relative North {deg}
  ,                                       !- X Origin {m}
  ,                                       !- Y Origin {m}
  ,                                       !- Z Origin {m}
  {00d9c9fc-ccb4-45f3-9e90-7de2cb2a5934}, !- Building Story Name
  {c53dbe13-dce6-498a-ad70-302400638e5d}; !- Thermal Zone Name

OS:Space,
  {3829b74b-4c52-4772-b122-f6ae7f0cb924}, !- Handle
  Space 1-2,                              !- Name
  {28350e9f-8131-43e0-bd38-a3ffa77d86b7}, !- Space Type Name
  ,                                       !- Default Construction Set Name
  ,                                       !- Default Schedule Set Name
  ,                                       !- Direction of Relative North {deg}
  ,                                       !- X Origin {m}
  ,                                       !- Y Origin {m}
  ,                                       !- Z Origin {m}
  {00d9c9fc-ccb4-45f3-9e90-7de2cb2a5934}, !- Building Story Name
  {f835f234-1c12-4391-a541-8e16d9ec7a93}; !- Thermal Zone Name

OS:Space,
  {f1b9b6fb-7e52-496b-945f-a5ac875ac738}, !- Handle
  Space 1-3,                              !- Name
  {1f69aba1-9a15-4ec6-abab-5cd49c7f7e37}, !- Space Type Name
  ,                                       !- Default Construction Set Name
  ,                                       !- Default Schedule Set Name
  ,                                       !- Direction of Relative North {deg}
  ,                                       !- X Origin {m}
  ,                                       !- Y Origin {m}
  ,                                       !- Z Origin {m}
  {00d9c9fc-ccb4-45f3-9e90-7de2cb2a5934}, !- Building Story Name
  {7fb11dff-20db-4579-85eb-fcd3e1520295}; !- Thermal Zone Name

OS:Space,
  {e0cbe81f-e336-4206-85f3-3b5edfb5e5b1}, !- Handle
  Space 1-4,                              !- Name
  {fdfd6f2e-ecd4-44f6-86ff-d1603439a69e}, !- Space Type Name
  ,                                       !- Default Construction Set Name
  ,                                       !- Default Schedule Set Name
  ,                                       !- Direction of Relative North {deg}
  ,                                       !- X Origin {m}
  ,                                       !- Y Origin {m}
  ,                                       !- Z Origin {m}
  {00d9c9fc-ccb4-45f3-9e90-7de2cb2a5934}, !- Building Story Name
  {3ef91d34-ea1a-4e32-a050-888f7cec7677}; !- Thermal Zone Name

OS:Space,
  {787afdbf-b140-47a0-a3d7-3bcc32b45fda}, !- Handle
  Space 1-5,                              !- Name
  {28350e9f-8131-43e0-bd38-a3ffa77d86b7}, !- Space Type Name
  ,                                       !- Default Construction Set Name
  ,                                       !- Default Schedule Set Name
  ,                                       !- Direction of Relative North {deg}
  ,                                       !- X Origin {m}
  ,                                       !- Y Origin {m}
  ,                                       !- Z Origin {m}
  {00d9c9fc-ccb4-45f3-9e90-7de2cb2a5934}, !- Building Story Name
  {9ca9f2bc-6ec0-4228-a847-fd21fb866e0f}; !- Thermal Zone Name

OS:Space,
  {0d8ecdc3-0146-42bc-89c6-9ab006c8dc8d}, !- Handle
  Space 1-6,                              !- Name
  {28350e9f-8131-43e0-bd38-a3ffa77d86b7}, !- Space Type Name
  ,                                       !- Default Construction Set Name
  ,                                       !- Default Schedule Set Name
  ,                                       !- Direction of Relative North {deg}
  ,                                       !- X Origin {m}
  ,                                       !- Y Origin {m}
  ,                                       !- Z Origin {m}
  {00d9c9fc-ccb4-45f3-9e90-7de2cb2a5934}, !- Building Story Name
  {8fc6f178-87fa-480c-b50e-e5a671dd410f}; !- Thermal Zone Name

OS:Space,
  {d8f6e848-7297-4fa1-b5aa-445f786bf649}, !- Handle
  Space 1-7,                              !- Name
  {28350e9f-8131-43e0-bd38-a3ffa77d86b7}, !- Space Type Name
  ,                                       !- Default Construction Set Name
  ,                                       !- Default Schedule Set Name
  ,                                       !- Direction of Relative North {deg}
  ,                                       !- X Origin {m}
  ,                                       !- Y Origin {m}
  ,                                       !- Z Origin {m}
  {00d9c9fc-ccb4-45f3-9e90-7de2cb2a5934}, !- Building Story Name
  {af5aecdd-f0eb-4cc3-830c-bc99068931d3}; !- Thermal Zone Name

OS:Space,
  {0023a559-85fc-458f-a303-4ab1bd26a9aa}, !- Handle
  Space 1-8,                              !- Name
  {41cbe41f-6aad-42d6-80e8-cc6da9c3a2be}, !- Space Type Name
  ,                                       !- Default Construction Set Name
  ,                                       !- Default Schedule Set Name
  ,                                       !- Direction of Relative North {deg}
  ,                                       !- X Origin {m}
  ,                                       !- Y Origin {m}
  ,                                       !- Z Origin {m}
  {00d9c9fc-ccb4-45f3-9e90-7de2cb2a5934}, !- Building Story Name
  {fb72fa88-8736-4839-8773-18db8bed1176}; !- Thermal Zone Name

OS:Space,
  {d794ff44-c2a5-48f2-89d7-0912493f9252}, !- Handle
  Space 1-9,                              !- Name
  {eb99774d-5347-44e1-8bb8-4f6b0b8042c1}, !- Space Type Name
  ,                                       !- Default Construction Set Name
  ,                                       !- Default Schedule Set Name
  ,                                       !- Direction of Relative North {deg}
  ,                                       !- X Origin {m}
  ,                                       !- Y Origin {m}
  ,                                       !- Z Origin {m}
  {00d9c9fc-ccb4-45f3-9e90-7de2cb2a5934}, !- Building Story Name
  {d5f2f2cd-5ee3-4b95-ac57-c118075411fa}; !- Thermal Zone Name

OS:Space,
  {83f61bc9-d6bc-4c68-993f-f1dc3eef70a0}, !- Handle
  Space 2-1,                              !- Name
  {1f69aba1-9a15-4ec6-abab-5cd49c7f7e37}, !- Space Type Name
  ,                                       !- Default Construction Set Name
  ,                                       !- Default Schedule Set Name
  ,                                       !- Direction of Relative North {deg}
  ,                                       !- X Origin {m}
  ,                                       !- Y Origin {m}
  ,                                       !- Z Origin {m}
  {9516111e-1142-45de-943f-cdeeb4392581}, !- Building Story Name
  {64e72e32-17c0-4135-abce-256b7b6ea11d}; !- Thermal Zone Name

OS:Space,
  {4f40ace3-5af6-4834-b2e1-acd1066736d7}, !- Handle
  Space 2-10,                             !- Name
  {1f69aba1-9a15-4ec6-abab-5cd49c7f7e37}, !- Space Type Name
  ,                                       !- Default Construction Set Name
  ,                                       !- Default Schedule Set Name
  ,                                       !- Direction of Relative North {deg}
  ,                                       !- X Origin {m}
  ,                                       !- Y Origin {m}
  ,                                       !- Z Origin {m}
  {9516111e-1142-45de-943f-cdeeb4392581}, !- Building Story Name
  {8b666a24-3a41-4226-bf0d-36caabec3877}; !- Thermal Zone Name

OS:Space,
  {e3428b52-0d1f-4cea-867c-dee6ebd79f2a}, !- Handle
  Space 2-11,                             !- Name
  {41cbe41f-6aad-42d6-80e8-cc6da9c3a2be}, !- Space Type Name
  ,                                       !- Default Construction Set Name
  ,                                       !- Default Schedule Set Name
  ,                                       !- Direction of Relative North {deg}
  ,                                       !- X Origin {m}
  ,                                       !- Y Origin {m}
  ,                                       !- Z Origin {m}
  {9516111e-1142-45de-943f-cdeeb4392581}, !- Building Story Name
  {bde52ee1-73bf-4931-afb8-627d2f5231ee}; !- Thermal Zone Name

OS:Space,
  {773d5256-2ebe-4c3c-beae-90f06971f1db}, !- Handle
  Space 2-12,                             !- Name
  {28350e9f-8131-43e0-bd38-a3ffa77d86b7}, !- Space Type Name
  ,                                       !- Default Construction Set Name
  ,                                       !- Default Schedule Set Name
  ,                                       !- Direction of Relative North {deg}
  ,                                       !- X Origin {m}
  ,                                       !- Y Origin {m}
  ,                                       !- Z Origin {m}
  {9516111e-1142-45de-943f-cdeeb4392581}, !- Building Story Name
  {30c1f9b8-23d8-41e4-a96b-01737ace681d}; !- Thermal Zone Name

OS:Space,
  {61d2b648-1e47-4408-84bf-330cd6bfb2f9}, !- Handle
  Space 2-13,                             !- Name
  {28350e9f-8131-43e0-bd38-a3ffa77d86b7}, !- Space Type Name
  ,                                       !- Default Construction Set Name
  ,                                       !- Default Schedule Set Name
  ,                                       !- Direction of Relative North {deg}
  ,                                       !- X Origin {m}
  ,                                       !- Y Origin {m}
  ,                                       !- Z Origin {m}
  {9516111e-1142-45de-943f-cdeeb4392581}, !- Building Story Name
  {78af7367-8be2-4ad2-95f4-862ac7dc09fe}; !- Thermal Zone Name

OS:Space,
  {e8d08be9-eb05-43fc-97fe-36891458f3f0}, !- Handle
  Space 2-2,                              !- Name
  {28350e9f-8131-43e0-bd38-a3ffa77d86b7}, !- Space Type Name
  ,                                       !- Default Construction Set Name
  ,                                       !- Default Schedule Set Name
  ,                                       !- Direction of Relative North {deg}
  ,                                       !- X Origin {m}
  ,                                       !- Y Origin {m}
  ,                                       !- Z Origin {m}
  {9516111e-1142-45de-943f-cdeeb4392581}, !- Building Story Name
  {5ddca5f8-e872-4f19-912d-369b33ce30b4}; !- Thermal Zone Name

OS:Space,
  {d23a5b24-cbee-49ea-881e-e20f61692581}, !- Handle
  Space 2-3,                              !- Name
  {1f69aba1-9a15-4ec6-abab-5cd49c7f7e37}, !- Space Type Name
  ,                                       !- Default Construction Set Name
  ,                                       !- Default Schedule Set Name
  ,                                       !- Direction of Relative North {deg}
  ,                                       !- X Origin {m}
  ,                                       !- Y Origin {m}
  ,                                       !- Z Origin {m}
  {9516111e-1142-45de-943f-cdeeb4392581}, !- Building Story Name
  {94e6089b-4930-48b1-b7b9-6d9e5da89716}; !- Thermal Zone Name

OS:Space,
  {8cc7aa96-2b33-4a96-b7fd-a688c798e5b9}, !- Handle
  Space 2-4,                              !- Name
  {fdfd6f2e-ecd4-44f6-86ff-d1603439a69e}, !- Space Type Name
  ,                                       !- Default Construction Set Name
  ,                                       !- Default Schedule Set Name
  ,                                       !- Direction of Relative North {deg}
  ,                                       !- X Origin {m}
  ,                                       !- Y Origin {m}
  ,                                       !- Z Origin {m}
  {9516111e-1142-45de-943f-cdeeb4392581}, !- Building Story Name
  {ac83a26c-490d-4844-a90f-0bccde95f34a}; !- Thermal Zone Name

OS:Space,
  {9333c3a6-ab6f-4e02-9e70-fc009ec2aab0}, !- Handle
  Space 2-5,                              !- Name
  {28350e9f-8131-43e0-bd38-a3ffa77d86b7}, !- Space Type Name
  ,                                       !- Default Construction Set Name
  ,                                       !- Default Schedule Set Name
  ,                                       !- Direction of Relative North {deg}
  ,                                       !- X Origin {m}
  ,                                       !- Y Origin {m}
  ,                                       !- Z Origin {m}
  {9516111e-1142-45de-943f-cdeeb4392581}, !- Building Story Name
  {9c9bdd22-1fff-4fbe-ad88-4d3e7a20f746}; !- Thermal Zone Name

OS:Space,
  {673d2963-c0b0-41e7-b405-858bc151bc46}, !- Handle
  Space 2-6,                              !- Name
  {28350e9f-8131-43e0-bd38-a3ffa77d86b7}, !- Space Type Name
  ,                                       !- Default Construction Set Name
  ,                                       !- Default Schedule Set Name
  ,                                       !- Direction of Relative North {deg}
  ,                                       !- X Origin {m}
  ,                                       !- Y Origin {m}
  ,                                       !- Z Origin {m}
  {9516111e-1142-45de-943f-cdeeb4392581}, !- Building Story Name
  {8725e629-3b06-45e4-a59c-635e42c1548f}; !- Thermal Zone Name

OS:Space,
  {78f6fdbf-9e6f-4ddd-955d-d642014afe39}, !- Handle
  Space 2-7,                              !- Name
  {28350e9f-8131-43e0-bd38-a3ffa77d86b7}, !- Space Type Name
  ,                                       !- Default Construction Set Name
  ,                                       !- Default Schedule Set Name
  ,                                       !- Direction of Relative North {deg}
  ,                                       !- X Origin {m}
  ,                                       !- Y Origin {m}
  ,                                       !- Z Origin {m}
  {9516111e-1142-45de-943f-cdeeb4392581}, !- Building Story Name
  {82cfeb2e-6784-4c35-be47-65b7a3fef592}; !- Thermal Zone Name

OS:Space,
  {66737466-71a4-4292-9c84-f88d8df184db}, !- Handle
  Space 2-8,                              !- Name
  {41cbe41f-6aad-42d6-80e8-cc6da9c3a2be}, !- Space Type Name
  ,                                       !- Default Construction Set Name
  ,                                       !- Default Schedule Set Name
  ,                                       !- Direction of Relative North {deg}
  ,                                       !- X Origin {m}
  ,                                       !- Y Origin {m}
  ,                                       !- Z Origin {m}
  {9516111e-1142-45de-943f-cdeeb4392581}, !- Building Story Name
  {df2c00de-3ca7-45b4-bbe6-3f6013ab6b17}; !- Thermal Zone Name

OS:Space,
  {057487d3-c877-4c7e-8ef5-5dbc169ed496}, !- Handle
  Space 2-9,                              !- Name
  {eb99774d-5347-44e1-8bb8-4f6b0b8042c1}, !- Space Type Name
  ,                                       !- Default Construction Set Name
  ,                                       !- Default Schedule Set Name
  ,                                       !- Direction of Relative North {deg}
  ,                                       !- X Origin {m}
  ,                                       !- Y Origin {m}
  ,                                       !- Z Origin {m}
  {9516111e-1142-45de-943f-cdeeb4392581}, !- Building Story Name
  {d3a154da-3153-456c-9f6c-b01ebdb82d6c}; !- Thermal Zone Name

OS:Space,
  {fc359203-718e-4ad6-a48b-8024cfacd56b}, !- Handle
  Space 3-1,                              !- Name
  {c16abb74-9383-43c1-8dd5-06f87c62193b}, !- Space Type Name
  ,                                       !- Default Construction Set Name
  ,                                       !- Default Schedule Set Name
  ,                                       !- Direction of Relative North {deg}
  ,                                       !- X Origin {m}
  ,                                       !- Y Origin {m}
  ,                                       !- Z Origin {m}
  {8bac2f24-f8f1-4aa7-afd7-b8531f39c2cf}, !- Building Story Name
  {1669cc5e-4f9b-48ef-9949-75fdcff21b0d}; !- Thermal Zone Name

OS:Space,
  {8224069e-c89e-44e4-8692-554c47268da2}, !- Handle
  Space 3-2,                              !- Name
  {ebde6267-41b2-442a-a566-33d190e6e110}, !- Space Type Name
  ,                                       !- Default Construction Set Name
  ,                                       !- Default Schedule Set Name
  ,                                       !- Direction of Relative North {deg}
  ,                                       !- X Origin {m}
  ,                                       !- Y Origin {m}
  ,                                       !- Z Origin {m}
  {8bac2f24-f8f1-4aa7-afd7-b8531f39c2cf}, !- Building Story Name
  {57484f86-2512-4fb1-85cd-df85b9794e1d}; !- Thermal Zone Name

OS:Space,
  {736eea97-7e5a-4695-8d73-05ab1d9450f2}, !- Handle
  Space 3-3,                              !- Name
  {ebde6267-41b2-442a-a566-33d190e6e110}, !- Space Type Name
  ,                                       !- Default Construction Set Name
  ,                                       !- Default Schedule Set Name
  ,                                       !- Direction of Relative North {deg}
  ,                                       !- X Origin {m}
  ,                                       !- Y Origin {m}
  ,                                       !- Z Origin {m}
  {8bac2f24-f8f1-4aa7-afd7-b8531f39c2cf}, !- Building Story Name
  {caa2322e-f467-41e1-b368-8997102dbe99}; !- Thermal Zone Name

OS:Space,
  {e9afe416-3689-421b-9fbe-7869d7ac9316}, !- Handle
  Space 3-4,                              !- Name
  {ebde6267-41b2-442a-a566-33d190e6e110}, !- Space Type Name
  ,                                       !- Default Construction Set Name
  ,                                       !- Default Schedule Set Name
  ,                                       !- Direction of Relative North {deg}
  ,                                       !- X Origin {m}
  ,                                       !- Y Origin {m}
  ,                                       !- Z Origin {m}
  {8bac2f24-f8f1-4aa7-afd7-b8531f39c2cf}, !- Building Story Name
  {5d05ebbf-f176-4ab0-bfdc-9aef6567fc7b}; !- Thermal Zone Name

OS:Space,
  {d14ccba1-18a0-441a-8d86-513e386de8b2}, !- Handle
  Space 3-5,                              !- Name
  {ebde6267-41b2-442a-a566-33d190e6e110}, !- Space Type Name
  ,                                       !- Default Construction Set Name
  ,                                       !- Default Schedule Set Name
  ,                                       !- Direction of Relative North {deg}
  ,                                       !- X Origin {m}
  ,                                       !- Y Origin {m}
  ,                                       !- Z Origin {m}
  {8bac2f24-f8f1-4aa7-afd7-b8531f39c2cf}, !- Building Story Name
  {8dd86737-d95f-4fca-a823-d931909440e6}; !- Thermal Zone Name

OS:Space,
  {abfcca33-aaaa-4a00-8771-73b9db327dad}, !- Handle
  Space 3-6,                              !- Name
  {ebde6267-41b2-442a-a566-33d190e6e110}, !- Space Type Name
  ,                                       !- Default Construction Set Name
  ,                                       !- Default Schedule Set Name
  ,                                       !- Direction of Relative North {deg}
  ,                                       !- X Origin {m}
  ,                                       !- Y Origin {m}
  ,                                       !- Z Origin {m}
  {8bac2f24-f8f1-4aa7-afd7-b8531f39c2cf}, !- Building Story Name
  {3e887af7-f520-430b-9683-207a0dd8fdf7}; !- Thermal Zone Name

OS:Space,
  {4dcf9c44-6a08-4a8b-9407-e654990dd224}, !- Handle
  Space 3-7,                              !- Name
  {ebde6267-41b2-442a-a566-33d190e6e110}, !- Space Type Name
  ,                                       !- Default Construction Set Name
  ,                                       !- Default Schedule Set Name
  ,                                       !- Direction of Relative North {deg}
  ,                                       !- X Origin {m}
  ,                                       !- Y Origin {m}
  ,                                       !- Z Origin {m}
  {8bac2f24-f8f1-4aa7-afd7-b8531f39c2cf}, !- Building Story Name
  {2f2ee531-8874-41ca-952e-7265e2692a29}; !- Thermal Zone Name

OS:Space,
  {c1ef2761-b673-49aa-867d-6ae01e4940b3}, !- Handle
  Space 3-8,                              !- Name
  {ebde6267-41b2-442a-a566-33d190e6e110}, !- Space Type Name
  ,                                       !- Default Construction Set Name
  ,                                       !- Default Schedule Set Name
  ,                                       !- Direction of Relative North {deg}
  ,                                       !- X Origin {m}
  ,                                       !- Y Origin {m}
  ,                                       !- Z Origin {m}
  {8bac2f24-f8f1-4aa7-afd7-b8531f39c2cf}, !- Building Story Name
  {057eb7e0-c092-4c97-a6f9-54828d5d77bf}; !- Thermal Zone Name

OS:Space,
  {9367d6ad-76e0-4559-828e-6eae0c7a256a}, !- Handle
  Space 3-9,                              !- Name
  {ebde6267-41b2-442a-a566-33d190e6e110}, !- Space Type Name
  ,                                       !- Default Construction Set Name
  ,                                       !- Default Schedule Set Name
  ,                                       !- Direction of Relative North {deg}
  ,                                       !- X Origin {m}
  ,                                       !- Y Origin {m}
  ,                                       !- Z Origin {m}
  {8bac2f24-f8f1-4aa7-afd7-b8531f39c2cf}, !- Building Story Name
  {7e1190a0-ff43-4f39-b4ef-1575b3e9cd39}; !- Thermal Zone Name

OS:Space,
  {5809671e-3f47-428c-8082-dea2162979d5}, !- Handle
  Space 4-1,                              !- Name
  {c16abb74-9383-43c1-8dd5-06f87c62193b}, !- Space Type Name
  ,                                       !- Default Construction Set Name
  ,                                       !- Default Schedule Set Name
  ,                                       !- Direction of Relative North {deg}
  ,                                       !- X Origin {m}
  ,                                       !- Y Origin {m}
  ,                                       !- Z Origin {m}
  {5baa00ab-09f8-4625-8701-d57444a340ed}, !- Building Story Name
  {8df2b45b-cbc8-4a9c-a827-045287e38d4f}; !- Thermal Zone Name

OS:Space,
  {2b7887c1-5622-431d-bcd4-fdf63b748813}, !- Handle
  Space 4-2,                              !- Name
  {ebde6267-41b2-442a-a566-33d190e6e110}, !- Space Type Name
  ,                                       !- Default Construction Set Name
  ,                                       !- Default Schedule Set Name
  ,                                       !- Direction of Relative North {deg}
  ,                                       !- X Origin {m}
  ,                                       !- Y Origin {m}
  ,                                       !- Z Origin {m}
  {5baa00ab-09f8-4625-8701-d57444a340ed}, !- Building Story Name
  {ad83c226-9732-4fb8-9299-d6e14d78135d}; !- Thermal Zone Name

OS:Space,
  {149f0eeb-93b5-49ab-8fa3-9506bfa3f85b}, !- Handle
  Space 4-3,                              !- Name
  {ebde6267-41b2-442a-a566-33d190e6e110}, !- Space Type Name
  ,                                       !- Default Construction Set Name
  ,                                       !- Default Schedule Set Name
  ,                                       !- Direction of Relative North {deg}
  ,                                       !- X Origin {m}
  ,                                       !- Y Origin {m}
  ,                                       !- Z Origin {m}
  {5baa00ab-09f8-4625-8701-d57444a340ed}, !- Building Story Name
  {ff1fd17e-1acc-4c4b-b1eb-10a2cf4e44ba}; !- Thermal Zone Name

OS:Space,
  {4bb1f610-0b95-462d-9958-642d9906b6fa}, !- Handle
  Space 4-4,                              !- Name
  {ebde6267-41b2-442a-a566-33d190e6e110}, !- Space Type Name
  ,                                       !- Default Construction Set Name
  ,                                       !- Default Schedule Set Name
  ,                                       !- Direction of Relative North {deg}
  ,                                       !- X Origin {m}
  ,                                       !- Y Origin {m}
  ,                                       !- Z Origin {m}
  {5baa00ab-09f8-4625-8701-d57444a340ed}, !- Building Story Name
  {1ff089d2-c075-4cda-8945-64cee45e54bc}; !- Thermal Zone Name

OS:Space,
  {19cddce6-5b40-4cf5-a454-d626065a3418}, !- Handle
  Space 4-5,                              !- Name
  {ebde6267-41b2-442a-a566-33d190e6e110}, !- Space Type Name
  ,                                       !- Default Construction Set Name
  ,                                       !- Default Schedule Set Name
  ,                                       !- Direction of Relative North {deg}
  ,                                       !- X Origin {m}
  ,                                       !- Y Origin {m}
  ,                                       !- Z Origin {m}
  {5baa00ab-09f8-4625-8701-d57444a340ed}, !- Building Story Name
  {d4dd198a-dca5-4b3d-b514-ca1a8310e7c2}; !- Thermal Zone Name

OS:Space,
  {c31625a3-c0dc-49a1-9e51-8bdd46d3a7da}, !- Handle
  Space 4-6,                              !- Name
  {ebde6267-41b2-442a-a566-33d190e6e110}, !- Space Type Name
  ,                                       !- Default Construction Set Name
  ,                                       !- Default Schedule Set Name
  ,                                       !- Direction of Relative North {deg}
  ,                                       !- X Origin {m}
  ,                                       !- Y Origin {m}